CHEMBL255949
  MOE2020           3D

 37 40  0  0  0  0  0  0  0  0999 V2000
   14.1840   11.2220   11.0000 C   0  0  0  0  0  0  0  0  0  0  0  0
   12.9640   11.6720   10.5060 C   0  0  0  0  0  0  0  0  0  0  0  0
   11.9580   10.7570   10.2070 C   0  0  0  0  0  0  0  0  0  0  0  0
   12.1520    9.3880   10.4100 C   0  0  0  0  0  0  0  0  0  0  0  0
   13.3530    8.9300   11.0000 C   0  0  0  0  0  0  0  0  0  0  0  0
   14.3710    9.8620   11.2400 C   0  0  0  0  0  0  0  0  0  0  0  0
   13.7220    7.5990   11.2520 N   0  0  0  0  0  0  0  0  0  0  0  0
   13.1090    6.4340   11.7180 C   0  0  0  0  0  0  0  0  0  0  0  0
   14.0060    5.4760   12.0530 N   0  0  0  0  0  0  0  0  0  0  0  0
   13.5130    4.2780   12.4440 C   0  0  0  0  0  0  0  0  0  0  0  0
   12.1500    4.0370   12.5200 C   0  0  0  0  0  0  0  0  0  0  0  0
   11.2900    5.0800   12.1750 C   0  0  0  0  0  0  0  0  0  0  0  0
   11.7600    6.2970   11.7950 N   0  0  0  0  0  0  0  0  0  0  0  0
    9.9100    4.8740   12.1430 N   0  0  0  0  0  0  0  0  0  0  0  0
    9.2450    3.6760   12.4600 C   0  0  0  0  0  0  0  0  0  0  0  0
    8.6970    2.8370   11.4650 C   0  0  0  0  0  0  0  0  0  0  0  0
    8.1040    1.6070   11.8020 C   0  0  0  0  0  0  0  0  0  0  0  0
    8.0500    1.1730   13.1310 C   0  0  0  0  0  0  0  0  0  0  0  0
    8.6090    2.0020   14.0920 C   0  0  0  0  0  0  0  0  0  0  0  0
    9.1830    3.2050   13.7740 C   0  0  0  0  0  0  0  0  0  0  0  0
    9.6100    3.8000   14.9210 O   0  0  0  0  0  0  0  0  0  0  0  0
    9.5750    2.7820   15.8760 C   0  0  0  0  0  0  0  0  0  0  0  0
    8.6570    1.8220   15.4360 O   0  0  0  0  0  0  0  0  0  0  0  0
    8.7280    3.2720    9.7990 Cl  0  0  0  0  0  0  0  0  0  0  0  0
   10.9180    8.3460    9.7980 Cl  0  0  0  0  0  0  0  0  0  0  0  0
   14.9830   11.9200   11.2060 H   0  0  0  0  0  0  0  0  0  0  0  0
   12.8020   12.7270   10.3320 H   0  0  0  0  0  0  0  0  0  0  0  0
   11.0300   11.1100    9.7800 H   0  0  0  0  0  0  0  0  0  0  0  0
   15.3230    9.5440   11.6400 H   0  0  0  0  0  0  0  0  0  0  0  0
   14.7260    7.4780   11.1850 H   0  0  0  0  0  0  0  0  0  0  0  0
   14.2210    3.4990   12.6760 H   0  0  0  0  0  0  0  0  0  0  0  0
   11.7750    3.0750   12.8270 H   0  0  0  0  0  0  0  0  0  0  0  0
    9.3990    5.5360   11.5580 H   0  0  0  0  0  0  0  0  0  0  0  0
    7.6820    0.9960   11.0190 H   0  0  0  0  0  0  0  0  0  0  0  0
    7.5850    0.2340   13.3930 H   0  0  0  0  0  0  0  0  0  0  0  0
   10.5680    2.3420   15.9680 H   0  0  0  0  0  0  0  0  0  0  0  0
    9.3320    3.1650   16.8590 H   0  0  0  0  0  0  0  0  0  0  0  0
  1  2  1  0  0  0  0
  1  6  2  0  0  0  0
  1 26  1  0  0  0  0
  2  3  2  0  0  0  0
  2 27  1  0  0  0  0
  3  4  1  0  0  0  0
  3 28  1  0  0  0  0
  4  5  2  0  0  0  0
  4 25  1  0  0  0  0
  5  6  1  0  0  0  0
  5  7  1  0  0  0  0
  6 29  1  0  0  0  0
  7  8  1  0  0  0  0
  7 30  1  0  0  0  0
  8  9  1  0  0  0  0
  8 13  2  0  0  0  0
  9 10  2  0  0  0  0
 10 11  1  0  0  0  0
 10 31  1  0  0  0  0
 11 12  2  0  0  0  0
 11 32  1  0  0  0  0
 12 13  1  0  0  0  0
 12 14  1  0  0  0  0
 14 15  1  0  0  0  0
 14 33  1  0  0  0  0
 15 16  1  0  0  0  0
 15 20  2  0  0  0  0
 16 17  2  0  0  0  0
 16 24  1  0  0  0  0
 17 18  1  0  0  0  0
 17 34  1  0  0  0  0
 18 19  2  0  0  0  0
 18 35  1  0  0  0  0
 19 20  1  0  0  0  0
 19 23  1  0  0  0  0
 20 21  1  0  0  0  0
 21 22  1  0  0  0  0
 22 23  1  0  0  0  0
 22 36  1  0  0  0  0
 22 37  1  0  0  0  0
M  END
>  <paper_pIC50>
4.9461536

$$$$
CHEMBL402934
  MOE2020           3D

 37 40  0  0  0  0  0  0  0  0999 V2000
   12.3180   11.4960   10.4840 C   0  0  0  0  0  0  0  0  0  0  0  0
   11.3670   10.4950   10.6710 C   0  0  0  0  0  0  0  0  0  0  0  0
   11.7790    9.1960   10.9620 C   0  0  0  0  0  0  0  0  0  0  0  0
   13.1420    8.8990   11.0760 C   0  0  0  0  0  0  0  0  0  0  0  0
   14.0840    9.9120   10.8840 C   0  0  0  0  0  0  0  0  0  0  0  0
   13.6770   11.2090   10.5850 C   0  0  0  0  0  0  0  0  0  0  0  0
   13.6410    7.6310   11.3980 N   0  0  0  0  0  0  0  0  0  0  0  0
   13.0720    6.4100   11.7620 C   0  0  0  0  0  0  0  0  0  0  0  0
   13.9880    5.4760   12.1130 N   0  0  0  0  0  0  0  0  0  0  0  0
   13.5120    4.2570   12.4590 C   0  0  0  0  0  0  0  0  0  0  0  0
   12.1530    3.9780   12.4910 C   0  0  0  0  0  0  0  0  0  0  0  0
   11.2780    4.9970   12.1190 C   0  0  0  0  0  0  0  0  0  0  0  0
   11.7270    6.2210   11.7460 N   0  0  0  0  0  0  0  0  0  0  0  0
    9.9020    4.7750   12.0720 N   0  0  0  0  0  0  0  0  0  0  0  0
    9.2370    3.5880   12.4250 C   0  0  0  0  0  0  0  0  0  0  0  0
    8.6700    2.7360   11.4540 C   0  0  0  0  0  0  0  0  0  0  0  0
    8.0630    1.5240   11.8250 C   0  0  0  0  0  0  0  0  0  0  0  0
    8.0150    1.1200   13.1630 C   0  0  0  0  0  0  0  0  0  0  0  0
    8.5950    1.9630   14.1010 C   0  0  0  0  0  0  0  0  0  0  0  0
    9.1800    3.1500   13.7510 C   0  0  0  0  0  0  0  0  0  0  0  0
    9.6170    3.7700   14.8810 O   0  0  0  0  0  0  0  0  0  0  0  0
    9.5720    2.7790   15.8640 C   0  0  0  0  0  0  0  0  0  0  0  0
    8.6460    1.8150   15.4490 O   0  0  0  0  0  0  0  0  0  0  0  0
    8.6950    3.1360    9.7790 Cl  0  0  0  0  0  0  0  0  0  0  0  0
   11.9930   12.5050   10.2700 H   0  0  0  0  0  0  0  0  0  0  0  0
   10.3160   10.7310   10.6000 H   0  0  0  0  0  0  0  0  0  0  0  0
   11.0260    8.4410   11.1060 H   0  0  0  0  0  0  0  0  0  0  0  0
   15.1410    9.7050   10.9740 H   0  0  0  0  0  0  0  0  0  0  0  0
   14.4130   11.9880   10.4420 H   0  0  0  0  0  0  0  0  0  0  0  0
   14.6510    7.5810   11.3520 H   0  0  0  0  0  0  0  0  0  0  0  0
   14.2320    3.4940   12.7040 H   0  0  0  0  0  0  0  0  0  0  0  0
   11.7890    3.0100   12.7900 H   0  0  0  0  0  0  0  0  0  0  0  0
    9.3760    5.4440   11.5110 H   0  0  0  0  0  0  0  0  0  0  0  0
    7.6220    0.9040   11.0600 H   0  0  0  0  0  0  0  0  0  0  0  0
    7.5380    0.1950   13.4510 H   0  0  0  0  0  0  0  0  0  0  0  0
   10.5620    2.3330   15.9690 H   0  0  0  0  0  0  0  0  0  0  0  0
    9.3310    3.1880   16.8370 H   0  0  0  0  0  0  0  0  0  0  0  0
  1  2  1  0  0  0  0
  1  6  2  0  0  0  0
  1 25  1  0  0  0  0
  2  3  2  0  0  0  0
  2 26  1  0  0  0  0
  3  4  1  0  0  0  0
  3 27  1  0  0  0  0
  4  5  2  0  0  0  0
  4  7  1  0  0  0  0
  5  6  1  0  0  0  0
  5 28  1  0  0  0  0
  6 29  1  0  0  0  0
  7  8  1  0  0  0  0
  7 30  1  0  0  0  0
  8  9  1  0  0  0  0
  8 13  2  0  0  0  0
  9 10  2  0  0  0  0
 10 11  1  0  0  0  0
 10 31  1  0  0  0  0
 11 12  2  0  0  0  0
 11 32  1  0  0  0  0
 12 13  1  0  0  0  0
 12 14  1  0  0  0  0
 14 15  1  0  0  0  0
 14 33  1  0  0  0  0
 15 16  1  0  0  0  0
 15 20  2  0  0  0  0
 16 17  2  0  0  0  0
 16 24  1  0  0  0  0
 17 18  1  0  0  0  0
 17 34  1  0  0  0  0
 18 19  2  0  0  0  0
 18 35  1  0  0  0  0
 19 20  1  0  0  0  0
 19 23  1  0  0  0  0
 20 21  1  0  0  0  0
 21 22  1  0  0  0  0
 22 23  1  0  0  0  0
 22 36  1  0  0  0  0
 22 37  1  0  0  0  0
M  END
>  <paper_pIC50>
5.8096681

$$$$
CHEMBL402933
  MOE2020           3D

 37 40  0  0  0  0  0  0  0  0999 V2000
   13.9300   11.2490   10.7330 C   0  0  0  0  0  0  0  0  0  0  0  0
   12.6240   11.6370   10.4480 C   0  0  0  0  0  0  0  0  0  0  0  0
   11.6070   10.6850   10.4300 C   0  0  0  0  0  0  0  0  0  0  0  0
   11.8800    9.3440   10.7040 C   0  0  0  0  0  0  0  0  0  0  0  0
   13.1950    8.9460   11.0420 C   0  0  0  0  0  0  0  0  0  0  0  0
   14.2080    9.9150   11.0240 C   0  0  0  0  0  0  0  0  0  0  0  0
   13.6400    7.6450   11.3420 N   0  0  0  0  0  0  0  0  0  0  0  0
   13.0630    6.4390   11.7450 C   0  0  0  0  0  0  0  0  0  0  0  0
   13.9820    5.5000   12.0790 N   0  0  0  0  0  0  0  0  0  0  0  0
   13.5100    4.2850   12.4470 C   0  0  0  0  0  0  0  0  0  0  0  0
   12.1500    4.0100   12.5040 C   0  0  0  0  0  0  0  0  0  0  0  0
   11.2730    5.0350   12.1500 C   0  0  0  0  0  0  0  0  0  0  0  0
   11.7200    6.2600   11.7780 N   0  0  0  0  0  0  0  0  0  0  0  0
    9.8970    4.8120   12.1090 N   0  0  0  0  0  0  0  0  0  0  0  0
    9.2360    3.6170   12.4450 C   0  0  0  0  0  0  0  0  0  0  0  0
    8.6780    2.7700   11.4640 C   0  0  0  0  0  0  0  0  0  0  0  0
    8.0790    1.5500   11.8200 C   0  0  0  0  0  0  0  0  0  0  0  0
    8.0290    1.1330   13.1550 C   0  0  0  0  0  0  0  0  0  0  0  0
    8.6000    1.9700   14.1020 C   0  0  0  0  0  0  0  0  0  0  0  0
    9.1790    3.1650   13.7660 C   0  0  0  0  0  0  0  0  0  0  0  0
    9.6110    3.7760   14.9030 O   0  0  0  0  0  0  0  0  0  0  0  0
    9.5720    2.7740   15.8740 C   0  0  0  0  0  0  0  0  0  0  0  0
    8.6500    1.8090   15.4490 O   0  0  0  0  0  0  0  0  0  0  0  0
    8.7050    3.1860    9.7920 Cl  0  0  0  0  0  0  0  0  0  0  0  0
   10.8450    8.4800   10.6160 F   0  0  0  0  0  0  0  0  0  0  0  0
   14.7280   11.9780   10.7370 H   0  0  0  0  0  0  0  0  0  0  0  0
   12.3950   12.6730   10.2380 H   0  0  0  0  0  0  0  0  0  0  0  0
   10.5960   10.9860   10.2000 H   0  0  0  0  0  0  0  0  0  0  0  0
   15.2290    9.6470   11.2550 H   0  0  0  0  0  0  0  0  0  0  0  0
   14.6410    7.5450   11.2310 H   0  0  0  0  0  0  0  0  0  0  0  0
   14.2320    3.5210   12.6860 H   0  0  0  0  0  0  0  0  0  0  0  0
   11.7890    3.0420   12.8060 H   0  0  0  0  0  0  0  0  0  0  0  0
    9.3770    5.4810   11.5420 H   0  0  0  0  0  0  0  0  0  0  0  0
    7.6460    0.9330   11.0480 H   0  0  0  0  0  0  0  0  0  0  0  0
    7.5580    0.2020   13.4320 H   0  0  0  0  0  0  0  0  0  0  0  0
   10.5640    2.3320   15.9730 H   0  0  0  0  0  0  0  0  0  0  0  0
    9.3300    3.1720   16.8510 H   0  0  0  0  0  0  0  0  0  0  0  0
  1  2  1  0  0  0  0
  1  6  2  0  0  0  0
  1 26  1  0  0  0  0
  2  3  2  0  0  0  0
  2 27  1  0  0  0  0
  3  4  1  0  0  0  0
  3 28  1  0  0  0  0
  4  5  2  0  0  0  0
  4 25  1  0  0  0  0
  5  6  1  0  0  0  0
  5  7  1  0  0  0  0
  6 29  1  0  0  0  0
  7  8  1  0  0  0  0
  7 30  1  0  0  0  0
  8  9  1  0  0  0  0
  8 13  2  0  0  0  0
  9 10  2  0  0  0  0
 10 11  1  0  0  0  0
 10 31  1  0  0  0  0
 11 12  2  0  0  0  0
 11 32  1  0  0  0  0
 12 13  1  0  0  0  0
 12 14  1  0  0  0  0
 14 15  1  0  0  0  0
 14 33  1  0  0  0  0
 15 16  1  0  0  0  0
 15 20  2  0  0  0  0
 16 17  2  0  0  0  0
 16 24  1  0  0  0  0
 17 18  1  0  0  0  0
 17 34  1  0  0  0  0
 18 19  2  0  0  0  0
 18 35  1  0  0  0  0
 19 20  1  0  0  0  0
 19 23  1  0  0  0  0
 20 21  1  0  0  0  0
 21 22  1  0  0  0  0
 22 23  1  0  0  0  0
 22 36  1  0  0  0  0
 22 37  1  0  0  0  0
M  END
>  <paper_pIC50>
5.3010302

$$$$
CHEMBL256724
  MOE2020           3D

 37 40  0  0  0  0  0  0  0  0999 V2000
   11.2950   10.4900   10.6940 C   0  0  0  0  0  0  0  0  0  0  0  0
   11.7310    9.1950   10.9720 C   0  0  0  0  0  0  0  0  0  0  0  0
   13.0990    8.9080   11.0620 C   0  0  0  0  0  0  0  0  0  0  0  0
   14.0210    9.9370   10.8570 C   0  0  0  0  0  0  0  0  0  0  0  0
   13.5880   11.2300   10.5760 C   0  0  0  0  0  0  0  0  0  0  0  0
   12.2270   11.5080   10.4960 C   0  0  0  0  0  0  0  0  0  0  0  0
   14.4880   12.2190   10.3900 F   0  0  0  0  0  0  0  0  0  0  0  0
   13.6180    7.6470   11.3750 N   0  0  0  0  0  0  0  0  0  0  0  0
   13.0620    6.4220   11.7470 C   0  0  0  0  0  0  0  0  0  0  0  0
   13.9850    5.4970   12.1040 N   0  0  0  0  0  0  0  0  0  0  0  0
   13.5170    4.2760   12.4580 C   0  0  0  0  0  0  0  0  0  0  0  0
   12.1600    3.9870   12.4910 C   0  0  0  0  0  0  0  0  0  0  0  0
   11.2780    4.9970   12.1120 C   0  0  0  0  0  0  0  0  0  0  0  0
   11.7190    6.2210   11.7310 N   0  0  0  0  0  0  0  0  0  0  0  0
    9.9030    4.7680   12.0650 N   0  0  0  0  0  0  0  0  0  0  0  0
    9.2410    3.5810   12.4220 C   0  0  0  0  0  0  0  0  0  0  0  0
    8.6720    2.7270   11.4540 C   0  0  0  0  0  0  0  0  0  0  0  0
    8.0640    1.5170   11.8270 C   0  0  0  0  0  0  0  0  0  0  0  0
    8.0160    1.1160   13.1670 C   0  0  0  0  0  0  0  0  0  0  0  0
    8.5980    1.9600   14.1020 C   0  0  0  0  0  0  0  0  0  0  0  0
    9.1860    3.1460   13.7490 C   0  0  0  0  0  0  0  0  0  0  0  0
    9.6230    3.7680   14.8780 O   0  0  0  0  0  0  0  0  0  0  0  0
    9.5750    2.7800   15.8640 C   0  0  0  0  0  0  0  0  0  0  0  0
    8.6480    1.8150   15.4500 O   0  0  0  0  0  0  0  0  0  0  0  0
    8.6950    3.1250    9.7780 Cl  0  0  0  0  0  0  0  0  0  0  0  0
   10.2390   10.7120   10.6420 H   0  0  0  0  0  0  0  0  0  0  0  0
   10.9880    8.4310   11.1260 H   0  0  0  0  0  0  0  0  0  0  0  0
   15.0820    9.7540   10.9240 H   0  0  0  0  0  0  0  0  0  0  0  0
   11.8960   12.5160   10.2950 H   0  0  0  0  0  0  0  0  0  0  0  0
   14.6280    7.6040   11.3320 H   0  0  0  0  0  0  0  0  0  0  0  0
   14.2430    3.5200   12.7110 H   0  0  0  0  0  0  0  0  0  0  0  0
   11.8020    3.0180   12.7960 H   0  0  0  0  0  0  0  0  0  0  0  0
    9.3740    5.4340   11.5030 H   0  0  0  0  0  0  0  0  0  0  0  0
    7.6210    0.8960   11.0640 H   0  0  0  0  0  0  0  0  0  0  0  0
    7.5370    0.1930   13.4570 H   0  0  0  0  0  0  0  0  0  0  0  0
   10.5630    2.3320   15.9720 H   0  0  0  0  0  0  0  0  0  0  0  0
    9.3320    3.1920   16.8350 H   0  0  0  0  0  0  0  0  0  0  0  0
  1  2  1  0  0  0  0
  1  6  2  0  0  0  0
  1 26  1  0  0  0  0
  2  3  2  0  0  0  0
  2 27  1  0  0  0  0
  3  4  1  0  0  0  0
  3  8  1  0  0  0  0
  4  5  2  0  0  0  0
  4 28  1  0  0  0  0
  5  6  1  0  0  0  0
  5  7  1  0  0  0  0
  6 29  1  0  0  0  0
  8  9  1  0  0  0  0
  8 30  1  0  0  0  0
  9 10  1  0  0  0  0
  9 14  2  0  0  0  0
 10 11  2  0  0  0  0
 11 12  1  0  0  0  0
 11 31  1  0  0  0  0
 12 13  2  0  0  0  0
 12 32  1  0  0  0  0
 13 14  1  0  0  0  0
 13 15  1  0  0  0  0
 15 16  1  0  0  0  0
 15 33  1  0  0  0  0
 16 17  1  0  0  0  0
 16 21  2  0  0  0  0
 17 18  2  0  0  0  0
 17 25  1  0  0  0  0
 18 19  1  0  0  0  0
 18 34  1  0  0  0  0
 19 20  2  0  0  0  0
 19 35  1  0  0  0  0
 20 21  1  0  0  0  0
 20 24  1  0  0  0  0
 21 22  1  0  0  0  0
 22 23  1  0  0  0  0
 23 24  1  0  0  0  0
 23 36  1  0  0  0  0
 23 37  1  0  0  0  0
M  END
>  <paper_pIC50>
5.939302

$$$$
CHEMBL402584
  MOE2020           3D

 37 40  0  0  0  0  0  0  0  0999 V2000
   14.1980    9.8940   10.9390 C   0  0  0  0  0  0  0  0  0  0  0  0
   13.8320   11.1790   10.5510 C   0  0  0  0  0  0  0  0  0  0  0  0
   12.4930   11.4710   10.3180 C   0  0  0  0  0  0  0  0  0  0  0  0
   11.5170   10.4910   10.4770 C   0  0  0  0  0  0  0  0  0  0  0  0
   11.8850    9.2000   10.8560 C   0  0  0  0  0  0  0  0  0  0  0  0
   13.2310    8.8970   11.0870 C   0  0  0  0  0  0  0  0  0  0  0  0
   13.6930    7.6310   11.4620 N   0  0  0  0  0  0  0  0  0  0  0  0
   13.0990    6.4170   11.8070 C   0  0  0  0  0  0  0  0  0  0  0  0
   14.0010    5.4660   12.1420 N   0  0  0  0  0  0  0  0  0  0  0  0
   13.5110    4.2460   12.4650 C   0  0  0  0  0  0  0  0  0  0  0  0
   12.1490    3.9840   12.4900 C   0  0  0  0  0  0  0  0  0  0  0  0
   11.2860    5.0200   12.1350 C   0  0  0  0  0  0  0  0  0  0  0  0
   11.7500    6.2470   11.7850 N   0  0  0  0  0  0  0  0  0  0  0  0
    9.9080    4.8060   12.0840 N   0  0  0  0  0  0  0  0  0  0  0  0
    9.2390    3.6180   12.4270 C   0  0  0  0  0  0  0  0  0  0  0  0
    8.6770    2.7700   11.4500 C   0  0  0  0  0  0  0  0  0  0  0  0
    8.0730    1.5530   11.8100 C   0  0  0  0  0  0  0  0  0  0  0  0
    8.0230    1.1400   13.1460 C   0  0  0  0  0  0  0  0  0  0  0  0
    8.5970    1.9790   14.0900 C   0  0  0  0  0  0  0  0  0  0  0  0
    9.1800    3.1710   13.7500 C   0  0  0  0  0  0  0  0  0  0  0  0
    9.6150    3.7830   14.8850 O   0  0  0  0  0  0  0  0  0  0  0  0
    9.5720    2.7830   15.8610 C   0  0  0  0  0  0  0  0  0  0  0  0
    8.6480    1.8200   15.4370 O   0  0  0  0  0  0  0  0  0  0  0  0
    8.7050    3.1800    9.7770 Cl  0  0  0  0  0  0  0  0  0  0  0  0
   12.1420   12.7150    9.9250 F   0  0  0  0  0  0  0  0  0  0  0  0
   15.2420    9.6840   11.1200 H   0  0  0  0  0  0  0  0  0  0  0  0
   14.5810   11.9460   10.4260 H   0  0  0  0  0  0  0  0  0  0  0  0
   10.4820   10.7410   10.3010 H   0  0  0  0  0  0  0  0  0  0  0  0
   11.1180    8.4520   10.9640 H   0  0  0  0  0  0  0  0  0  0  0  0
   14.7020    7.5540   11.4230 H   0  0  0  0  0  0  0  0  0  0  0  0
   14.2210    3.4690   12.6960 H   0  0  0  0  0  0  0  0  0  0  0  0
   11.7750    3.0140   12.7690 H   0  0  0  0  0  0  0  0  0  0  0  0
    9.3840    5.4780   11.5230 H   0  0  0  0  0  0  0  0  0  0  0  0
    7.6370    0.9360   11.0400 H   0  0  0  0  0  0  0  0  0  0  0  0
    7.5490    0.2110   13.4260 H   0  0  0  0  0  0  0  0  0  0  0  0
   10.5620    2.3380   15.9620 H   0  0  0  0  0  0  0  0  0  0  0  0
    9.3290    3.1840   16.8360 H   0  0  0  0  0  0  0  0  0  0  0  0
  1  2  1  0  0  0  0
  1  6  2  0  0  0  0
  1 26  1  0  0  0  0
  2  3  2  0  0  0  0
  2 27  1  0  0  0  0
  3  4  1  0  0  0  0
  3 25  1  0  0  0  0
  4  5  2  0  0  0  0
  4 28  1  0  0  0  0
  5  6  1  0  0  0  0
  5 29  1  0  0  0  0
  6  7  1  0  0  0  0
  7  8  1  0  0  0  0
  7 30  1  0  0  0  0
  8  9  1  0  0  0  0
  8 13  2  0  0  0  0
  9 10  2  0  0  0  0
 10 11  1  0  0  0  0
 10 31  1  0  0  0  0
 11 12  2  0  0  0  0
 11 32  1  0  0  0  0
 12 13  1  0  0  0  0
 12 14  1  0  0  0  0
 14 15  1  0  0  0  0
 14 33  1  0  0  0  0
 15 16  1  0  0  0  0
 15 20  2  0  0  0  0
 16 17  2  0  0  0  0
 16 24  1  0  0  0  0
 17 18  1  0  0  0  0
 17 34  1  0  0  0  0
 18 19  2  0  0  0  0
 18 35  1  0  0  0  0
 19 20  1  0  0  0  0
 19 23  1  0  0  0  0
 20 21  1  0  0  0  0
 21 22  1  0  0  0  0
 22 23  1  0  0  0  0
 22 36  1  0  0  0  0
 22 37  1  0  0  0  0
M  END
>  <paper_pIC50>
5.3930001

$$$$
CHEMBL254588
  MOE2020           3D

 38 41  0  0  0  0  0  0  0  0999 V2000
   11.3140   10.4740   10.6940 C   0  0  0  0  0  0  0  0  0  0  0  0
   12.2390   11.4970   10.4960 C   0  0  0  0  0  0  0  0  0  0  0  0
   13.6090   11.2280   10.5780 C   0  0  0  0  0  0  0  0  0  0  0  0
   14.0410    9.9280   10.8660 C   0  0  0  0  0  0  0  0  0  0  0  0
   13.1190    8.8960   11.0710 C   0  0  0  0  0  0  0  0  0  0  0  0
   11.7510    9.1800   10.9750 C   0  0  0  0  0  0  0  0  0  0  0  0
   13.6340    7.6320   11.3860 N   0  0  0  0  0  0  0  0  0  0  0  0
   13.0720    6.4080   11.7540 C   0  0  0  0  0  0  0  0  0  0  0  0
   13.9900    5.4780   12.1090 N   0  0  0  0  0  0  0  0  0  0  0  0
   13.5170    4.2580   12.4590 C   0  0  0  0  0  0  0  0  0  0  0  0
   12.1580    3.9760   12.4920 C   0  0  0  0  0  0  0  0  0  0  0  0
   11.2810    4.9910   12.1150 C   0  0  0  0  0  0  0  0  0  0  0  0
   11.7280    6.2130   11.7380 N   0  0  0  0  0  0  0  0  0  0  0  0
    9.9050    4.7670   12.0680 N   0  0  0  0  0  0  0  0  0  0  0  0
    9.2400    3.5820   12.4240 C   0  0  0  0  0  0  0  0  0  0  0  0
    8.6710    2.7280   11.4550 C   0  0  0  0  0  0  0  0  0  0  0  0
    8.0620    1.5180   11.8280 C   0  0  0  0  0  0  0  0  0  0  0  0
    8.0140    1.1170   13.1670 C   0  0  0  0  0  0  0  0  0  0  0  0
    8.5960    1.9600   14.1030 C   0  0  0  0  0  0  0  0  0  0  0  0
    9.1840    3.1460   13.7500 C   0  0  0  0  0  0  0  0  0  0  0  0
    9.6220    3.7670   14.8790 O   0  0  0  0  0  0  0  0  0  0  0  0
    9.5740    2.7780   15.8650 C   0  0  0  0  0  0  0  0  0  0  0  0
    8.6470    1.8140   15.4510 O   0  0  0  0  0  0  0  0  0  0  0  0
    8.6950    3.1270    9.7790 Cl  0  0  0  0  0  0  0  0  0  0  0  0
   14.5730   12.3020   10.3750 C   0  0  0  0  0  0  0  0  0  0  0  0
   15.3330   13.1610   10.2150 N   0  0  0  0  0  0  0  0  0  0  0  0
   10.2570   10.6900   10.6400 H   0  0  0  0  0  0  0  0  0  0  0  0
   11.8760   12.4960   10.2920 H   0  0  0  0  0  0  0  0  0  0  0  0
   15.1000    9.7200   10.9430 H   0  0  0  0  0  0  0  0  0  0  0  0
   11.0080    8.4180   11.1280 H   0  0  0  0  0  0  0  0  0  0  0  0
   14.6440    7.5800   11.3410 H   0  0  0  0  0  0  0  0  0  0  0  0
   14.2390    3.4980   12.7070 H   0  0  0  0  0  0  0  0  0  0  0  0
   11.7960    3.0080   12.7950 H   0  0  0  0  0  0  0  0  0  0  0  0
    9.3780    5.4340   11.5060 H   0  0  0  0  0  0  0  0  0  0  0  0
    7.6200    0.8980   11.0640 H   0  0  0  0  0  0  0  0  0  0  0  0
    7.5350    0.1940   13.4560 H   0  0  0  0  0  0  0  0  0  0  0  0
   10.5620    2.3310   15.9720 H   0  0  0  0  0  0  0  0  0  0  0  0
    9.3320    3.1900   16.8360 H   0  0  0  0  0  0  0  0  0  0  0  0
  1  2  1  0  0  0  0
  1  6  2  0  0  0  0
  1 27  1  0  0  0  0
  2  3  2  0  0  0  0
  2 28  1  0  0  0  0
  3  4  1  0  0  0  0
  3 25  1  0  0  0  0
  4  5  2  0  0  0  0
  4 29  1  0  0  0  0
  5  6  1  0  0  0  0
  5  7  1  0  0  0  0
  6 30  1  0  0  0  0
  7  8  1  0  0  0  0
  7 31  1  0  0  0  0
  8  9  1  0  0  0  0
  8 13  2  0  0  0  0
  9 10  2  0  0  0  0
 10 11  1  0  0  0  0
 10 32  1  0  0  0  0
 11 12  2  0  0  0  0
 11 33  1  0  0  0  0
 12 13  1  0  0  0  0
 12 14  1  0  0  0  0
 14 15  1  0  0  0  0
 14 34  1  0  0  0  0
 15 16  1  0  0  0  0
 15 20  2  0  0  0  0
 16 17  2  0  0  0  0
 16 24  1  0  0  0  0
 17 18  1  0  0  0  0
 17 35  1  0  0  0  0
 18 19  2  0  0  0  0
 18 36  1  0  0  0  0
 19 20  1  0  0  0  0
 19 23  1  0  0  0  0
 20 21  1  0  0  0  0
 21 22  1  0  0  0  0
 22 23  1  0  0  0  0
 22 37  1  0  0  0  0
 22 38  1  0  0  0  0
 25 26  3  0  0  0  0
M  END
>  <paper_pIC50>
6.2596374

$$$$
CHEMBL258435
  MOE2020           3D

 38 41  0  0  0  0  0  0  0  0999 V2000
   11.5310   10.4990   10.4310 C   0  0  0  0  0  0  0  0  0  0  0  0
   11.8910    9.2190   10.8520 C   0  0  0  0  0  0  0  0  0  0  0  0
   13.2330    8.9110   11.0900 C   0  0  0  0  0  0  0  0  0  0  0  0
   14.2060    9.8960   10.9200 C   0  0  0  0  0  0  0  0  0  0  0  0
   13.8560   11.1720   10.4920 C   0  0  0  0  0  0  0  0  0  0  0  0
   12.5170   11.4710   10.2380 C   0  0  0  0  0  0  0  0  0  0  0  0
   12.1580   12.7960    9.7490 C   0  0  0  0  0  0  0  0  0  0  0  0
   11.8790   13.8480    9.3550 N   0  0  0  0  0  0  0  0  0  0  0  0
   13.6890    7.6520   11.4920 N   0  0  0  0  0  0  0  0  0  0  0  0
   13.0960    6.4330   11.8200 C   0  0  0  0  0  0  0  0  0  0  0  0
   14.0000    5.4840   12.1560 N   0  0  0  0  0  0  0  0  0  0  0  0
   13.5130    4.2600   12.4680 C   0  0  0  0  0  0  0  0  0  0  0  0
   12.1510    3.9940   12.4860 C   0  0  0  0  0  0  0  0  0  0  0  0
   11.2870    5.0290   12.1330 C   0  0  0  0  0  0  0  0  0  0  0  0
   11.7480    6.2590   11.7890 N   0  0  0  0  0  0  0  0  0  0  0  0
    9.9090    4.8110   12.0790 N   0  0  0  0  0  0  0  0  0  0  0  0
    9.2410    3.6220   12.4230 C   0  0  0  0  0  0  0  0  0  0  0  0
    8.6790    2.7740   11.4460 C   0  0  0  0  0  0  0  0  0  0  0  0
    8.0760    1.5560   11.8060 C   0  0  0  0  0  0  0  0  0  0  0  0
    8.0260    1.1430   13.1410 C   0  0  0  0  0  0  0  0  0  0  0  0
    8.6000    1.9820   14.0860 C   0  0  0  0  0  0  0  0  0  0  0  0
    9.1830    3.1740   13.7450 C   0  0  0  0  0  0  0  0  0  0  0  0
    9.6180    3.7860   14.8810 O   0  0  0  0  0  0  0  0  0  0  0  0
    9.5730    2.7860   15.8570 C   0  0  0  0  0  0  0  0  0  0  0  0
    8.6500    1.8230   15.4320 O   0  0  0  0  0  0  0  0  0  0  0  0
    8.7070    3.1840    9.7730 Cl  0  0  0  0  0  0  0  0  0  0  0  0
   10.4880   10.7230   10.2500 H   0  0  0  0  0  0  0  0  0  0  0  0
   11.1210    8.4780   10.9830 H   0  0  0  0  0  0  0  0  0  0  0  0
   15.2480    9.6820   11.1100 H   0  0  0  0  0  0  0  0  0  0  0  0
   14.6360   11.9090   10.3520 H   0  0  0  0  0  0  0  0  0  0  0  0
   14.6980    7.5820   11.4790 H   0  0  0  0  0  0  0  0  0  0  0  0
   14.2240    3.4850   12.7010 H   0  0  0  0  0  0  0  0  0  0  0  0
   11.7800    3.0210   12.7600 H   0  0  0  0  0  0  0  0  0  0  0  0
    9.3830    5.4820   11.5200 H   0  0  0  0  0  0  0  0  0  0  0  0
    7.6400    0.9390   11.0350 H   0  0  0  0  0  0  0  0  0  0  0  0
    7.5520    0.2140   13.4210 H   0  0  0  0  0  0  0  0  0  0  0  0
   10.5630    2.3410   15.9600 H   0  0  0  0  0  0  0  0  0  0  0  0
    9.3280    3.1870   16.8320 H   0  0  0  0  0  0  0  0  0  0  0  0
  1  2  1  0  0  0  0
  1  6  2  0  0  0  0
  1 27  1  0  0  0  0
  2  3  2  0  0  0  0
  2 28  1  0  0  0  0
  3  4  1  0  0  0  0
  3  9  1  0  0  0  0
  4  5  2  0  0  0  0
  4 29  1  0  0  0  0
  5  6  1  0  0  0  0
  5 30  1  0  0  0  0
  6  7  1  0  0  0  0
  7  8  3  0  0  0  0
  9 10  1  0  0  0  0
  9 31  1  0  0  0  0
 10 11  1  0  0  0  0
 10 15  2  0  0  0  0
 11 12  2  0  0  0  0
 12 13  1  0  0  0  0
 12 32  1  0  0  0  0
 13 14  2  0  0  0  0
 13 33  1  0  0  0  0
 14 15  1  0  0  0  0
 14 16  1  0  0  0  0
 16 17  1  0  0  0  0
 16 34  1  0  0  0  0
 17 18  1  0  0  0  0
 17 22  2  0  0  0  0
 18 19  2  0  0  0  0
 18 26  1  0  0  0  0
 19 20  1  0  0  0  0
 19 35  1  0  0  0  0
 20 21  2  0  0  0  0
 20 36  1  0  0  0  0
 21 22  1  0  0  0  0
 21 25  1  0  0  0  0
 22 23  1  0  0  0  0
 23 24  1  0  0  0  0
 24 25  1  0  0  0  0
 24 37  1  0  0  0  0
 24 38  1  0  0  0  0
M  END
>  <paper_pIC50>
5.90309

$$$$
CHEMBL257576
  MOE2020           3D

 41 44  0  0  0  0  0  0  0  0999 V2000
   12.8810   13.7730    9.9380 C   0  0  0  0  0  0  0  0  0  0  0  0
   12.0240   12.6410    9.8360 O   0  0  0  0  0  0  0  0  0  0  0  0
   12.4860   11.4120   10.2550 C   0  0  0  0  0  0  0  0  0  0  0  0
   13.8210   11.1410   10.5840 C   0  0  0  0  0  0  0  0  0  0  0  0
   14.1920    9.8620   10.9870 C   0  0  0  0  0  0  0  0  0  0  0  0
   13.2420    8.8430   11.0720 C   0  0  0  0  0  0  0  0  0  0  0  0
   11.9130    9.1120   10.7400 C   0  0  0  0  0  0  0  0  0  0  0  0
   11.5420   10.3920   10.3340 C   0  0  0  0  0  0  0  0  0  0  0  0
   13.7060    7.5870   11.4750 N   0  0  0  0  0  0  0  0  0  0  0  0
   13.1060    6.3750   11.8140 C   0  0  0  0  0  0  0  0  0  0  0  0
   14.0010    5.4150   12.1440 N   0  0  0  0  0  0  0  0  0  0  0  0
   13.5010    4.1990   12.4640 C   0  0  0  0  0  0  0  0  0  0  0  0
   12.1360    3.9500   12.4940 C   0  0  0  0  0  0  0  0  0  0  0  0
   11.2820    4.9940   12.1440 C   0  0  0  0  0  0  0  0  0  0  0  0
   11.7560    6.2170   11.7980 N   0  0  0  0  0  0  0  0  0  0  0  0
    9.9020    4.7920   12.0920 N   0  0  0  0  0  0  0  0  0  0  0  0
    9.2270    3.6080   12.4340 C   0  0  0  0  0  0  0  0  0  0  0  0
    8.6660    2.7590   11.4580 C   0  0  0  0  0  0  0  0  0  0  0  0
    8.0620    1.5420   11.8190 C   0  0  0  0  0  0  0  0  0  0  0  0
    8.0130    1.1300   13.1550 C   0  0  0  0  0  0  0  0  0  0  0  0
    8.5870    1.9700   14.0990 C   0  0  0  0  0  0  0  0  0  0  0  0
    9.1690    3.1620   13.7570 C   0  0  0  0  0  0  0  0  0  0  0  0
    9.6060    3.7740   14.8920 O   0  0  0  0  0  0  0  0  0  0  0  0
    9.5670    2.7750   15.8660 C   0  0  0  0  0  0  0  0  0  0  0  0
    8.6410    1.8120   15.4460 O   0  0  0  0  0  0  0  0  0  0  0  0
    8.6980    3.1670    9.7840 Cl  0  0  0  0  0  0  0  0  0  0  0  0
   12.3300   14.6680    9.6500 H   0  0  0  0  0  0  0  0  0  0  0  0
   13.2320   13.9190   10.9610 H   0  0  0  0  0  0  0  0  0  0  0  0
   13.7400   13.6860    9.2720 H   0  0  0  0  0  0  0  0  0  0  0  0
   14.5830   11.9020   10.5240 H   0  0  0  0  0  0  0  0  0  0  0  0
   15.2260    9.6750   11.2370 H   0  0  0  0  0  0  0  0  0  0  0  0
   11.1590    8.3440   10.7810 H   0  0  0  0  0  0  0  0  0  0  0  0
   10.5140   10.6030   10.0810 H   0  0  0  0  0  0  0  0  0  0  0  0
   14.7150    7.5120   11.4390 H   0  0  0  0  0  0  0  0  0  0  0  0
   14.2040    3.4140   12.6860 H   0  0  0  0  0  0  0  0  0  0  0  0
   11.7540    2.9840   12.7720 H   0  0  0  0  0  0  0  0  0  0  0  0
    9.3830    5.4690   11.5330 H   0  0  0  0  0  0  0  0  0  0  0  0
    7.6270    0.9240   11.0500 H   0  0  0  0  0  0  0  0  0  0  0  0
    7.5390    0.2020   13.4360 H   0  0  0  0  0  0  0  0  0  0  0  0
   10.5580    2.3310   15.9640 H   0  0  0  0  0  0  0  0  0  0  0  0
    9.3280    3.1770   16.8420 H   0  0  0  0  0  0  0  0  0  0  0  0
  1  2  1  0  0  0  0
  1 27  1  0  0  0  0
  1 28  1  0  0  0  0
  1 29  1  0  0  0  0
  2  3  1  0  0  0  0
  3  4  1  0  0  0  0
  3  8  2  0  0  0  0
  4  5  2  0  0  0  0
  4 30  1  0  0  0  0
  5  6  1  0  0  0  0
  5 31  1  0  0  0  0
  6  7  2  0  0  0  0
  6  9  1  0  0  0  0
  7  8  1  0  0  0  0
  7 32  1  0  0  0  0
  8 33  1  0  0  0  0
  9 10  1  0  0  0  0
  9 34  1  0  0  0  0
 10 11  1  0  0  0  0
 10 15  2  0  0  0  0
 11 12  2  0  0  0  0
 12 13  1  0  0  0  0
 12 35  1  0  0  0  0
 13 14  2  0  0  0  0
 13 36  1  0  0  0  0
 14 15  1  0  0  0  0
 14 16  1  0  0  0  0
 16 17  1  0  0  0  0
 16 37  1  0  0  0  0
 17 18  1  0  0  0  0
 17 22  2  0  0  0  0
 18 19  2  0  0  0  0
 18 26  1  0  0  0  0
 19 20  1  0  0  0  0
 19 38  1  0  0  0  0
 20 21  2  0  0  0  0
 20 39  1  0  0  0  0
 21 22  1  0  0  0  0
 21 25  1  0  0  0  0
 22 23  1  0  0  0  0
 23 24  1  0  0  0  0
 24 25  1  0  0  0  0
 24 40  1  0  0  0  0
 24 41  1  0  0  0  0
M  END
>  <paper_pIC50>
5.7121983

$$$$
CHEMBL401907
  MOE2020           3D

 37 40  0  0  0  0  0  0  0  0999 V2000
   11.3370   10.4760   10.6910 C   0  0  0  0  0  0  0  0  0  0  0  0
   11.7620    9.1760   10.9650 C   0  0  0  0  0  0  0  0  0  0  0  0
   13.1270    8.8820   11.0750 C   0  0  0  0  0  0  0  0  0  0  0  0
   14.0570    9.9080   10.8900 C   0  0  0  0  0  0  0  0  0  0  0  0
   13.6350   11.2070   10.6140 C   0  0  0  0  0  0  0  0  0  0  0  0
   12.2750   11.4920   10.5170 C   0  0  0  0  0  0  0  0  0  0  0  0
   14.7970   12.4630   10.4100 Cl  0  0  0  0  0  0  0  0  0  0  0  0
   13.6360    7.6150   11.3840 N   0  0  0  0  0  0  0  0  0  0  0  0
   13.0690    6.3940   11.7520 C   0  0  0  0  0  0  0  0  0  0  0  0
   13.9850    5.4610   12.1050 N   0  0  0  0  0  0  0  0  0  0  0  0
   13.5080    4.2430   12.4570 C   0  0  0  0  0  0  0  0  0  0  0  0
   12.1480    3.9660   12.4930 C   0  0  0  0  0  0  0  0  0  0  0  0
   11.2740    4.9850   12.1170 C   0  0  0  0  0  0  0  0  0  0  0  0
   11.7240    6.2060   11.7390 N   0  0  0  0  0  0  0  0  0  0  0  0
    9.8980    4.7650   12.0710 N   0  0  0  0  0  0  0  0  0  0  0  0
    9.2320    3.5800   12.4260 C   0  0  0  0  0  0  0  0  0  0  0  0
    8.6650    2.7260   11.4570 C   0  0  0  0  0  0  0  0  0  0  0  0
    8.0570    1.5150   11.8300 C   0  0  0  0  0  0  0  0  0  0  0  0
    8.0100    1.1130   13.1700 C   0  0  0  0  0  0  0  0  0  0  0  0
    8.5910    1.9570   14.1050 C   0  0  0  0  0  0  0  0  0  0  0  0
    9.1760    3.1440   13.7530 C   0  0  0  0  0  0  0  0  0  0  0  0
    9.6160    3.7660   14.8810 O   0  0  0  0  0  0  0  0  0  0  0  0
    9.5710    2.7760   15.8660 C   0  0  0  0  0  0  0  0  0  0  0  0
    8.6440    1.8120   15.4530 O   0  0  0  0  0  0  0  0  0  0  0  0
    8.6900    3.1230    9.7810 Cl  0  0  0  0  0  0  0  0  0  0  0  0
   10.2830   10.7020   10.6250 H   0  0  0  0  0  0  0  0  0  0  0  0
   11.0130    8.4140   11.1000 H   0  0  0  0  0  0  0  0  0  0  0  0
   15.1160    9.7130   10.9730 H   0  0  0  0  0  0  0  0  0  0  0  0
   11.9440   12.5020   10.3200 H   0  0  0  0  0  0  0  0  0  0  0  0
   14.6460    7.5640   11.3380 H   0  0  0  0  0  0  0  0  0  0  0  0
   14.2270    3.4800   12.7030 H   0  0  0  0  0  0  0  0  0  0  0  0
   11.7830    3.0010   12.7970 H   0  0  0  0  0  0  0  0  0  0  0  0
    9.3720    5.4330   11.5080 H   0  0  0  0  0  0  0  0  0  0  0  0
    7.6160    0.8940   11.0670 H   0  0  0  0  0  0  0  0  0  0  0  0
    7.5320    0.1890   13.4590 H   0  0  0  0  0  0  0  0  0  0  0  0
   10.5600    2.3300   15.9710 H   0  0  0  0  0  0  0  0  0  0  0  0
    9.3310    3.1870   16.8380 H   0  0  0  0  0  0  0  0  0  0  0  0
  1  2  1  0  0  0  0
  1  6  2  0  0  0  0
  1 26  1  0  0  0  0
  2  3  2  0  0  0  0
  2 27  1  0  0  0  0
  3  4  1  0  0  0  0
  3  8  1  0  0  0  0
  4  5  2  0  0  0  0
  4 28  1  0  0  0  0
  5  6  1  0  0  0  0
  5  7  1  0  0  0  0
  6 29  1  0  0  0  0
  8  9  1  0  0  0  0
  8 30  1  0  0  0  0
  9 10  1  0  0  0  0
  9 14  2  0  0  0  0
 10 11  2  0  0  0  0
 11 12  1  0  0  0  0
 11 31  1  0  0  0  0
 12 13  2  0  0  0  0
 12 32  1  0  0  0  0
 13 14  1  0  0  0  0
 13 15  1  0  0  0  0
 15 16  1  0  0  0  0
 15 33  1  0  0  0  0
 16 17  1  0  0  0  0
 16 21  2  0  0  0  0
 17 18  2  0  0  0  0
 17 25  1  0  0  0  0
 18 19  1  0  0  0  0
 18 34  1  0  0  0  0
 19 20  2  0  0  0  0
 19 35  1  0  0  0  0
 20 21  1  0  0  0  0
 20 24  1  0  0  0  0
 21 22  1  0  0  0  0
 22 23  1  0  0  0  0
 23 24  1  0  0  0  0
 23 36  1  0  0  0  0
 23 37  1  0  0  0  0
M  END
>  <paper_pIC50>
5.8761482

$$$$
CHEMBL255947
  MOE2020           3D

 37 40  0  0  0  0  0  0  0  0999 V2000
   14.2410    9.8760   10.9690 C   0  0  0  0  0  0  0  0  0  0  0  0
   13.8950   11.1570   10.5540 C   0  0  0  0  0  0  0  0  0  0  0  0
   12.5640   11.4520   10.2760 C   0  0  0  0  0  0  0  0  0  0  0  0
   11.5780   10.4780   10.4220 C   0  0  0  0  0  0  0  0  0  0  0  0
   11.9290    9.1920   10.8280 C   0  0  0  0  0  0  0  0  0  0  0  0
   13.2650    8.8850   11.1000 C   0  0  0  0  0  0  0  0  0  0  0  0
   13.7120    7.6220   11.4960 N   0  0  0  0  0  0  0  0  0  0  0  0
   13.1080    6.4090   11.8260 C   0  0  0  0  0  0  0  0  0  0  0  0
   14.0050    5.4500   12.1540 N   0  0  0  0  0  0  0  0  0  0  0  0
   13.5080    4.2300   12.4660 C   0  0  0  0  0  0  0  0  0  0  0  0
   12.1440    3.9770   12.4880 C   0  0  0  0  0  0  0  0  0  0  0  0
   11.2880    5.0210   12.1410 C   0  0  0  0  0  0  0  0  0  0  0  0
   11.7590    6.2480   11.8010 N   0  0  0  0  0  0  0  0  0  0  0  0
    9.9080    4.8130   12.0880 N   0  0  0  0  0  0  0  0  0  0  0  0
    9.2360    3.6250   12.4290 C   0  0  0  0  0  0  0  0  0  0  0  0
    8.6760    2.7780   11.4490 C   0  0  0  0  0  0  0  0  0  0  0  0
    8.0730    1.5590   11.8070 C   0  0  0  0  0  0  0  0  0  0  0  0
    8.0230    1.1440   13.1420 C   0  0  0  0  0  0  0  0  0  0  0  0
    8.5960    1.9820   14.0880 C   0  0  0  0  0  0  0  0  0  0  0  0
    9.1770    3.1750   13.7500 C   0  0  0  0  0  0  0  0  0  0  0  0
    9.6120    3.7850   14.8870 O   0  0  0  0  0  0  0  0  0  0  0  0
    9.5700    2.7830   15.8600 C   0  0  0  0  0  0  0  0  0  0  0  0
    8.6470    1.8200   15.4350 O   0  0  0  0  0  0  0  0  0  0  0  0
    8.7060    3.1900    9.7770 Cl  0  0  0  0  0  0  0  0  0  0  0  0
   12.1430   13.0330    9.7340 Cl  0  0  0  0  0  0  0  0  0  0  0  0
   15.2780    9.6650   11.1840 H   0  0  0  0  0  0  0  0  0  0  0  0
   14.6580   11.9130   10.4420 H   0  0  0  0  0  0  0  0  0  0  0  0
   10.5460   10.7220   10.2140 H   0  0  0  0  0  0  0  0  0  0  0  0
   11.1570    8.4470   10.9230 H   0  0  0  0  0  0  0  0  0  0  0  0
   14.7200    7.5380   11.4550 H   0  0  0  0  0  0  0  0  0  0  0  0
   14.2130    3.4470   12.6900 H   0  0  0  0  0  0  0  0  0  0  0  0
   11.7650    3.0070   12.7600 H   0  0  0  0  0  0  0  0  0  0  0  0
    9.3860    5.4860   11.5280 H   0  0  0  0  0  0  0  0  0  0  0  0
    7.6390    0.9430   11.0360 H   0  0  0  0  0  0  0  0  0  0  0  0
    7.5500    0.2140   13.4200 H   0  0  0  0  0  0  0  0  0  0  0  0
   10.5610    2.3380   15.9600 H   0  0  0  0  0  0  0  0  0  0  0  0
    9.3280    3.1810   16.8370 H   0  0  0  0  0  0  0  0  0  0  0  0
  1  2  1  0  0  0  0
  1  6  2  0  0  0  0
  1 26  1  0  0  0  0
  2  3  2  0  0  0  0
  2 27  1  0  0  0  0
  3  4  1  0  0  0  0
  3 25  1  0  0  0  0
  4  5  2  0  0  0  0
  4 28  1  0  0  0  0
  5  6  1  0  0  0  0
  5 29  1  0  0  0  0
  6  7  1  0  0  0  0
  7  8  1  0  0  0  0
  7 30  1  0  0  0  0
  8  9  1  0  0  0  0
  8 13  2  0  0  0  0
  9 10  2  0  0  0  0
 10 11  1  0  0  0  0
 10 31  1  0  0  0  0
 11 12  2  0  0  0  0
 11 32  1  0  0  0  0
 12 13  1  0  0  0  0
 12 14  1  0  0  0  0
 14 15  1  0  0  0  0
 14 33  1  0  0  0  0
 15 16  1  0  0  0  0
 15 20  2  0  0  0  0
 16 17  2  0  0  0  0
 16 24  1  0  0  0  0
 17 18  1  0  0  0  0
 17 34  1  0  0  0  0
 18 19  2  0  0  0  0
 18 35  1  0  0  0  0
 19 20  1  0  0  0  0
 19 23  1  0  0  0  0
 20 21  1  0  0  0  0
 21 22  1  0  0  0  0
 22 23  1  0  0  0  0
 22 36  1  0  0  0  0
 22 37  1  0  0  0  0
M  END
>  <paper_pIC50>
5.221849

$$$$
CHEMBL500724
  MOE2020           3D

 41 44  0  0  0  0  0  0  0  0999 V2000
   11.5200   10.3520   10.3060 C   0  0  0  0  0  0  0  0  0  0  0  0
   12.4200   11.4110   10.4200 C   0  0  0  0  0  0  0  0  0  0  0  0
   13.7440   11.1800   10.8290 C   0  0  0  0  0  0  0  0  0  0  0  0
   14.1420    9.8630   11.1020 C   0  0  0  0  0  0  0  0  0  0  0  0
   13.2340    8.8030   11.0300 C   0  0  0  0  0  0  0  0  0  0  0  0
   11.9250    9.0530   10.6120 C   0  0  0  0  0  0  0  0  0  0  0  0
   13.7080    7.5370   11.3820 N   0  0  0  0  0  0  0  0  0  0  0  0
   13.1040    6.3350   11.7460 C   0  0  0  0  0  0  0  0  0  0  0  0
   13.9940    5.3770   12.0950 N   0  0  0  0  0  0  0  0  0  0  0  0
   13.4870    4.1740   12.4500 C   0  0  0  0  0  0  0  0  0  0  0  0
   12.1210    3.9360   12.4960 C   0  0  0  0  0  0  0  0  0  0  0  0
   11.2720    4.9790   12.1270 C   0  0  0  0  0  0  0  0  0  0  0  0
   11.7520    6.1900   11.7480 N   0  0  0  0  0  0  0  0  0  0  0  0
    9.8910    4.7850   12.0860 N   0  0  0  0  0  0  0  0  0  0  0  0
    9.2150    3.6020   12.4340 C   0  0  0  0  0  0  0  0  0  0  0  0
    8.6550    2.7500   11.4590 C   0  0  0  0  0  0  0  0  0  0  0  0
    8.0530    1.5340   11.8240 C   0  0  0  0  0  0  0  0  0  0  0  0
    8.0050    1.1250   13.1610 C   0  0  0  0  0  0  0  0  0  0  0  0
    8.5800    1.9670   14.1020 C   0  0  0  0  0  0  0  0  0  0  0  0
    9.1580    3.1590   13.7580 C   0  0  0  0  0  0  0  0  0  0  0  0
    9.5990    3.7740   14.8900 O   0  0  0  0  0  0  0  0  0  0  0  0
    9.5640    2.7750   15.8660 C   0  0  0  0  0  0  0  0  0  0  0  0
    8.6380    1.8110   15.4490 O   0  0  0  0  0  0  0  0  0  0  0  0
    8.6890    3.1530    9.7840 Cl  0  0  0  0  0  0  0  0  0  0  0  0
   14.7100   12.3130   11.0560 C   0  0  0  0  0  0  0  0  0  0  0  0
   15.5290   12.3000   11.9680 O   0  0  0  0  0  0  0  0  0  0  0  0
   14.6200   13.3490   10.2400 N   0  0  0  0  0  0  0  0  0  0  0  0
   10.5010   10.5420   10.0020 H   0  0  0  0  0  0  0  0  0  0  0  0
   12.0610   12.4140   10.2280 H   0  0  0  0  0  0  0  0  0  0  0  0
   15.1550    9.6730   11.4310 H   0  0  0  0  0  0  0  0  0  0  0  0
   11.2120    8.2500   10.5210 H   0  0  0  0  0  0  0  0  0  0  0  0
   14.7180    7.4740   11.3510 H   0  0  0  0  0  0  0  0  0  0  0  0
   14.1870    3.3890   12.6850 H   0  0  0  0  0  0  0  0  0  0  0  0
   11.7340    2.9800   12.8000 H   0  0  0  0  0  0  0  0  0  0  0  0
    9.3740    5.4590   11.5220 H   0  0  0  0  0  0  0  0  0  0  0  0
    7.6180    0.9140   11.0560 H   0  0  0  0  0  0  0  0  0  0  0  0
    7.5340    0.1960   13.4440 H   0  0  0  0  0  0  0  0  0  0  0  0
   10.5560    2.3320   15.9610 H   0  0  0  0  0  0  0  0  0  0  0  0
    9.3280    3.1780   16.8420 H   0  0  0  0  0  0  0  0  0  0  0  0
   14.0180   13.3040    9.4380 H   0  0  0  0  0  0  0  0  0  0  0  0
   15.2560   14.1140   10.3760 H   0  0  0  0  0  0  0  0  0  0  0  0
  1  2  1  0  0  0  0
  1  6  2  0  0  0  0
  1 28  1  0  0  0  0
  2  3  2  0  0  0  0
  2 29  1  0  0  0  0
  3  4  1  0  0  0  0
  3 25  1  0  0  0  0
  4  5  2  0  0  0  0
  4 30  1  0  0  0  0
  5  6  1  0  0  0  0
  5  7  1  0  0  0  0
  6 31  1  0  0  0  0
  7  8  1  0  0  0  0
  7 32  1  0  0  0  0
  8  9  1  0  0  0  0
  8 13  2  0  0  0  0
  9 10  2  0  0  0  0
 10 11  1  0  0  0  0
 10 33  1  0  0  0  0
 11 12  2  0  0  0  0
 11 34  1  0  0  0  0
 12 13  1  0  0  0  0
 12 14  1  0  0  0  0
 14 15  1  0  0  0  0
 14 35  1  0  0  0  0
 15 16  1  0  0  0  0
 15 20  2  0  0  0  0
 16 17  2  0  0  0  0
 16 24  1  0  0  0  0
 17 18  1  0  0  0  0
 17 36  1  0  0  0  0
 18 19  2  0  0  0  0
 18 37  1  0  0  0  0
 19 20  1  0  0  0  0
 19 23  1  0  0  0  0
 20 21  1  0  0  0  0
 21 22  1  0  0  0  0
 22 23  1  0  0  0  0
 22 38  1  0  0  0  0
 22 39  1  0  0  0  0
 25 26  2  0  0  0  0
 25 27  1  0  0  0  0
 27 40  1  0  0  0  0
 27 41  1  0  0  0  0
M  END
>  <paper_pIC50>
6.6575775

$$$$
CHEMBL445162
  MOE2020           3D

 43 46  0  0  0  0  0  0  0  0999 V2000
   15.4100   12.7630    9.2790 C   0  0  0  0  0  0  0  0  0  0  0  0
   14.6070   12.6280   10.9640 S   0  0  0  0  0  0  0  0  0  0  0  0
   15.6260   12.2520   11.9490 O   0  0  0  0  0  0  0  0  0  0  0  0
   13.7800   13.8200   11.1780 O   0  0  0  0  0  0  0  0  0  0  0  0
   13.5090   11.2310   10.7780 C   0  0  0  0  0  0  0  0  0  0  0  0
   12.1590   11.4340   10.4800 C   0  0  0  0  0  0  0  0  0  0  0  0
   11.2900   10.3470   10.4130 C   0  0  0  0  0  0  0  0  0  0  0  0
   11.7620    9.0580   10.6660 C   0  0  0  0  0  0  0  0  0  0  0  0
   13.1090    8.8430   10.9840 C   0  0  0  0  0  0  0  0  0  0  0  0
   13.9850    9.9330   10.9960 C   0  0  0  0  0  0  0  0  0  0  0  0
   13.6370    7.5860   11.3080 N   0  0  0  0  0  0  0  0  0  0  0  0
   13.0710    6.3730   11.7040 C   0  0  0  0  0  0  0  0  0  0  0  0
   13.9850    5.4430   12.0700 N   0  0  0  0  0  0  0  0  0  0  0  0
   13.5050    4.2340   12.4490 C   0  0  0  0  0  0  0  0  0  0  0  0
   12.1440    3.9640   12.4990 C   0  0  0  0  0  0  0  0  0  0  0  0
   11.2720    4.9800   12.1130 C   0  0  0  0  0  0  0  0  0  0  0  0
   11.7250    6.1930   11.7140 N   0  0  0  0  0  0  0  0  0  0  0  0
    9.8950    4.7640   12.0740 N   0  0  0  0  0  0  0  0  0  0  0  0
    9.2290    3.5800   12.4300 C   0  0  0  0  0  0  0  0  0  0  0  0
    8.6620    2.7250   11.4610 C   0  0  0  0  0  0  0  0  0  0  0  0
    8.0560    1.5140   11.8340 C   0  0  0  0  0  0  0  0  0  0  0  0
    8.0090    1.1120   13.1730 C   0  0  0  0  0  0  0  0  0  0  0  0
    8.5890    1.9560   14.1090 C   0  0  0  0  0  0  0  0  0  0  0  0
    9.1740    3.1440   13.7570 C   0  0  0  0  0  0  0  0  0  0  0  0
    9.6140    3.7650   14.8850 O   0  0  0  0  0  0  0  0  0  0  0  0
    9.5710    2.7750   15.8690 C   0  0  0  0  0  0  0  0  0  0  0  0
    8.6440    1.8100   15.4570 O   0  0  0  0  0  0  0  0  0  0  0  0
    8.6890    3.1230    9.7850 Cl  0  0  0  0  0  0  0  0  0  0  0  0
   15.9330   11.8320    9.0770 H   0  0  0  0  0  0  0  0  0  0  0  0
   14.6400   12.9340    8.5300 H   0  0  0  0  0  0  0  0  0  0  0  0
   16.1190   13.5880    9.2980 H   0  0  0  0  0  0  0  0  0  0  0  0
   11.7710   12.4320   10.3250 H   0  0  0  0  0  0  0  0  0  0  0  0
   10.2460   10.5060   10.1860 H   0  0  0  0  0  0  0  0  0  0  0  0
   11.0650    8.2390   10.6120 H   0  0  0  0  0  0  0  0  0  0  0  0
   15.0280    9.7810   11.2390 H   0  0  0  0  0  0  0  0  0  0  0  0
   14.6490    7.5420   11.2790 H   0  0  0  0  0  0  0  0  0  0  0  0
   14.2230    3.4730   12.7030 H   0  0  0  0  0  0  0  0  0  0  0  0
   11.7780    3.0040   12.8200 H   0  0  0  0  0  0  0  0  0  0  0  0
    9.3690    5.4310   11.5100 H   0  0  0  0  0  0  0  0  0  0  0  0
    7.6150    0.8930   11.0700 H   0  0  0  0  0  0  0  0  0  0  0  0
    7.5320    0.1880   13.4630 H   0  0  0  0  0  0  0  0  0  0  0  0
   10.5600    2.3290   15.9730 H   0  0  0  0  0  0  0  0  0  0  0  0
    9.3320    3.1860   16.8420 H   0  0  0  0  0  0  0  0  0  0  0  0
  1  2  1  0  0  0  0
  1 29  1  0  0  0  0
  1 30  1  0  0  0  0
  1 31  1  0  0  0  0
  2  3  2  0  0  0  0
  2  4  2  0  0  0  0
  2  5  1  0  0  0  0
  5  6  1  0  0  0  0
  5 10  2  0  0  0  0
  6  7  2  0  0  0  0
  6 32  1  0  0  0  0
  7  8  1  0  0  0  0
  7 33  1  0  0  0  0
  8  9  2  0  0  0  0
  8 34  1  0  0  0  0
  9 10  1  0  0  0  0
  9 11  1  0  0  0  0
 10 35  1  0  0  0  0
 11 12  1  0  0  0  0
 11 36  1  0  0  0  0
 12 13  1  0  0  0  0
 12 17  2  0  0  0  0
 13 14  2  0  0  0  0
 14 15  1  0  0  0  0
 14 37  1  0  0  0  0
 15 16  2  0  0  0  0
 15 38  1  0  0  0  0
 16 17  1  0  0  0  0
 16 18  1  0  0  0  0
 18 19  1  0  0  0  0
 18 39  1  0  0  0  0
 19 20  1  0  0  0  0
 19 24  2  0  0  0  0
 20 21  2  0  0  0  0
 20 28  1  0  0  0  0
 21 22  1  0  0  0  0
 21 40  1  0  0  0  0
 22 23  2  0  0  0  0
 22 41  1  0  0  0  0
 23 24  1  0  0  0  0
 23 27  1  0  0  0  0
 24 25  1  0  0  0  0
 25 26  1  0  0  0  0
 26 27  1  0  0  0  0
 26 42  1  0  0  0  0
 26 43  1  0  0  0  0
M  END
>  <paper_pIC50>
7.0457573

$$$$
CHEMBL256348
  MOE2020           3D

 42 45  0  0  0  0  0  0  0  0999 V2000
   14.0500    9.8900   10.9280 C   0  0  0  0  0  0  0  0  0  0  0  0
   13.6690   11.0790   10.3110 C   0  0  0  0  0  0  0  0  0  0  0  0
   12.4030   11.1790    9.7320 C   0  0  0  0  0  0  0  0  0  0  0  0
   11.5080   10.1110    9.8030 C   0  0  0  0  0  0  0  0  0  0  0  0
   11.8880    8.9340   10.4370 C   0  0  0  0  0  0  0  0  0  0  0  0
   13.1650    8.8150   10.9920 C   0  0  0  0  0  0  0  0  0  0  0  0
   13.6520    7.6340   11.5600 N   0  0  0  0  0  0  0  0  0  0  0  0
   13.0800    6.4030   11.8740 C   0  0  0  0  0  0  0  0  0  0  0  0
   13.9910    5.4540   12.1930 N   0  0  0  0  0  0  0  0  0  0  0  0
   13.5060    4.2220   12.4830 C   0  0  0  0  0  0  0  0  0  0  0  0
   12.1440    3.9510   12.4990 C   0  0  0  0  0  0  0  0  0  0  0  0
   11.2760    4.9890   12.1640 C   0  0  0  0  0  0  0  0  0  0  0  0
   11.7340    6.2240   11.8460 N   0  0  0  0  0  0  0  0  0  0  0  0
    9.9000    4.7740   12.0980 N   0  0  0  0  0  0  0  0  0  0  0  0
    9.2290    3.5880   12.4400 C   0  0  0  0  0  0  0  0  0  0  0  0
    8.6650    2.7390   11.4640 C   0  0  0  0  0  0  0  0  0  0  0  0
    8.0590    1.5250   11.8290 C   0  0  0  0  0  0  0  0  0  0  0  0
    8.0100    1.1150   13.1660 C   0  0  0  0  0  0  0  0  0  0  0  0
    8.5880    1.9540   14.1080 C   0  0  0  0  0  0  0  0  0  0  0  0
    9.1720    3.1440   13.7630 C   0  0  0  0  0  0  0  0  0  0  0  0
    9.6100    3.7600   14.8950 O   0  0  0  0  0  0  0  0  0  0  0  0
    9.5670    2.7650   15.8740 C   0  0  0  0  0  0  0  0  0  0  0  0
    8.6420    1.8010   15.4550 O   0  0  0  0  0  0  0  0  0  0  0  0
    8.6950    3.1470    9.7900 Cl  0  0  0  0  0  0  0  0  0  0  0  0
   11.9490   12.6390    8.8210 S   0  0  0  0  0  0  0  0  0  0  0  0
   12.8360   13.7280    9.2420 O   0  0  0  0  0  0  0  0  0  0  0  0
   11.8440   12.2420    7.4140 O   0  0  0  0  0  0  0  0  0  0  0  0
   10.3490   13.0250    9.3700 N   0  0  0  0  0  0  0  0  0  0  0  0
   15.0460    9.8040   11.3370 H   0  0  0  0  0  0  0  0  0  0  0  0
   14.3750   11.8960   10.2480 H   0  0  0  0  0  0  0  0  0  0  0  0
   10.5340   10.1780    9.3420 H   0  0  0  0  0  0  0  0  0  0  0  0
   11.1950    8.1110   10.4440 H   0  0  0  0  0  0  0  0  0  0  0  0
   14.6620    7.6030   11.5860 H   0  0  0  0  0  0  0  0  0  0  0  0
   14.2190    3.4440   12.6960 H   0  0  0  0  0  0  0  0  0  0  0  0
   11.7710    2.9760   12.7560 H   0  0  0  0  0  0  0  0  0  0  0  0
    9.3760    5.4540   11.5480 H   0  0  0  0  0  0  0  0  0  0  0  0
    7.6210    0.9080   11.0600 H   0  0  0  0  0  0  0  0  0  0  0  0
    7.5340    0.1880   13.4490 H   0  0  0  0  0  0  0  0  0  0  0  0
   10.5580    2.3210   15.9760 H   0  0  0  0  0  0  0  0  0  0  0  0
    9.3270    3.1720   16.8470 H   0  0  0  0  0  0  0  0  0  0  0  0
    9.6560   12.3240    9.1060 H   0  0  0  0  0  0  0  0  0  0  0  0
   10.3090   13.2240   10.3840 H   0  0  0  0  0  0  0  0  0  0  0  0
  1  2  1  0  0  0  0
  1  6  2  0  0  0  0
  1 29  1  0  0  0  0
  2  3  2  0  0  0  0
  2 30  1  0  0  0  0
  3  4  1  0  0  0  0
  3 25  1  0  0  0  0
  4  5  2  0  0  0  0
  4 31  1  0  0  0  0
  5  6  1  0  0  0  0
  5 32  1  0  0  0  0
  6  7  1  0  0  0  0
  7  8  1  0  0  0  0
  7 33  1  0  0  0  0
  8  9  1  0  0  0  0
  8 13  2  0  0  0  0
  9 10  2  0  0  0  0
 10 11  1  0  0  0  0
 10 34  1  0  0  0  0
 11 12  2  0  0  0  0
 11 35  1  0  0  0  0
 12 13  1  0  0  0  0
 12 14  1  0  0  0  0
 14 15  1  0  0  0  0
 14 36  1  0  0  0  0
 15 16  1  0  0  0  0
 15 20  2  0  0  0  0
 16 17  2  0  0  0  0
 16 24  1  0  0  0  0
 17 18  1  0  0  0  0
 17 37  1  0  0  0  0
 18 19  2  0  0  0  0
 18 38  1  0  0  0  0
 19 20  1  0  0  0  0
 19 23  1  0  0  0  0
 20 21  1  0  0  0  0
 21 22  1  0  0  0  0
 22 23  1  0  0  0  0
 22 39  1  0  0  0  0
 22 40  1  0  0  0  0
 25 26  2  0  0  0  0
 25 27  2  0  0  0  0
 25 28  1  0  0  0  0
 28 41  1  0  0  0  0
 28 42  1  0  0  0  0
M  END
>  <paper_pIC50>
6.5228786

$$$$
CHEMBL257553
  MOE2020           3D

 42 45  0  0  0  0  0  0  0  0999 V2000
   11.3310   10.3360   10.3600 C   0  0  0  0  0  0  0  0  0  0  0  0
   11.8010    9.0520   10.6340 C   0  0  0  0  0  0  0  0  0  0  0  0
   13.1410    8.8450   10.9850 C   0  0  0  0  0  0  0  0  0  0  0  0
   14.0140    9.9400   11.0060 C   0  0  0  0  0  0  0  0  0  0  0  0
   13.5380   11.2340   10.7640 C   0  0  0  0  0  0  0  0  0  0  0  0
   12.1930   11.4270   10.4380 C   0  0  0  0  0  0  0  0  0  0  0  0
   14.6190   12.6390   10.9780 S   0  0  0  0  0  0  0  0  0  0  0  0
   13.8320   13.8500   10.7220 O   0  0  0  0  0  0  0  0  0  0  0  0
   15.3330   12.4520   12.2440 O   0  0  0  0  0  0  0  0  0  0  0  0
   15.7820   12.5020    9.7000 N   0  0  0  0  0  0  0  0  0  0  0  0
   13.6620    7.5910   11.3300 N   0  0  0  0  0  0  0  0  0  0  0  0
   13.0890    6.3790   11.7200 C   0  0  0  0  0  0  0  0  0  0  0  0
   13.9980    5.4430   12.0820 N   0  0  0  0  0  0  0  0  0  0  0  0
   13.5130    4.2340   12.4520 C   0  0  0  0  0  0  0  0  0  0  0  0
   12.1520    3.9680   12.4980 C   0  0  0  0  0  0  0  0  0  0  0  0
   11.2830    4.9890   12.1180 C   0  0  0  0  0  0  0  0  0  0  0  0
   11.7410    6.2040   11.7270 N   0  0  0  0  0  0  0  0  0  0  0  0
    9.9060    4.7760   12.0780 N   0  0  0  0  0  0  0  0  0  0  0  0
    9.2370    3.5910   12.4300 C   0  0  0  0  0  0  0  0  0  0  0  0
    8.6700    2.7400   11.4580 C   0  0  0  0  0  0  0  0  0  0  0  0
    8.0630    1.5280   11.8260 C   0  0  0  0  0  0  0  0  0  0  0  0
    8.0140    1.1220   13.1650 C   0  0  0  0  0  0  0  0  0  0  0  0
    8.5930    1.9640   14.1030 C   0  0  0  0  0  0  0  0  0  0  0  0
    9.1790    3.1520   13.7550 C   0  0  0  0  0  0  0  0  0  0  0  0
    9.6180    3.7700   14.8860 O   0  0  0  0  0  0  0  0  0  0  0  0
    9.5730    2.7770   15.8670 C   0  0  0  0  0  0  0  0  0  0  0  0
    8.6460    1.8140   15.4510 O   0  0  0  0  0  0  0  0  0  0  0  0
    8.6970    3.1420    9.7820 Cl  0  0  0  0  0  0  0  0  0  0  0  0
   10.2910   10.4900   10.1100 H   0  0  0  0  0  0  0  0  0  0  0  0
   11.1100    8.2300   10.5710 H   0  0  0  0  0  0  0  0  0  0  0  0
   15.0510    9.7970   11.2770 H   0  0  0  0  0  0  0  0  0  0  0  0
   11.8000   12.4210   10.2680 H   0  0  0  0  0  0  0  0  0  0  0  0
   15.3660   12.3960    8.7720 H   0  0  0  0  0  0  0  0  0  0  0  0
   16.5300   11.8160    9.8940 H   0  0  0  0  0  0  0  0  0  0  0  0
   14.6740    7.5450   11.2990 H   0  0  0  0  0  0  0  0  0  0  0  0
   14.2280    3.4680   12.7010 H   0  0  0  0  0  0  0  0  0  0  0  0
   11.7820    3.0070   12.8120 H   0  0  0  0  0  0  0  0  0  0  0  0
    9.3810    5.4440   11.5140 H   0  0  0  0  0  0  0  0  0  0  0  0
    7.6220    0.9090   11.0610 H   0  0  0  0  0  0  0  0  0  0  0  0
    7.5360    0.1980   13.4510 H   0  0  0  0  0  0  0  0  0  0  0  0
   10.5620    2.3300   15.9710 H   0  0  0  0  0  0  0  0  0  0  0  0
    9.3320    3.1860   16.8400 H   0  0  0  0  0  0  0  0  0  0  0  0
  1  2  1  0  0  0  0
  1  6  2  0  0  0  0
  1 29  1  0  0  0  0
  2  3  2  0  0  0  0
  2 30  1  0  0  0  0
  3  4  1  0  0  0  0
  3 11  1  0  0  0  0
  4  5  2  0  0  0  0
  4 31  1  0  0  0  0
  5  6  1  0  0  0  0
  5  7  1  0  0  0  0
  6 32  1  0  0  0  0
  7  8  2  0  0  0  0
  7  9  2  0  0  0  0
  7 10  1  0  0  0  0
 10 33  1  0  0  0  0
 10 34  1  0  0  0  0
 11 12  1  0  0  0  0
 11 35  1  0  0  0  0
 12 13  1  0  0  0  0
 12 17  2  0  0  0  0
 13 14  2  0  0  0  0
 14 15  1  0  0  0  0
 14 36  1  0  0  0  0
 15 16  2  0  0  0  0
 15 37  1  0  0  0  0
 16 17  1  0  0  0  0
 16 18  1  0  0  0  0
 18 19  1  0  0  0  0
 18 38  1  0  0  0  0
 19 20  1  0  0  0  0
 19 24  2  0  0  0  0
 20 21  2  0  0  0  0
 20 28  1  0  0  0  0
 21 22  1  0  0  0  0
 21 39  1  0  0  0  0
 22 23  2  0  0  0  0
 22 40  1  0  0  0  0
 23 24  1  0  0  0  0
 23 27  1  0  0  0  0
 24 25  1  0  0  0  0
 25 26  1  0  0  0  0
 26 27  1  0  0  0  0
 26 41  1  0  0  0  0
 26 42  1  0  0  0  0
M  END
>  <paper_pIC50>
7.3979402

$$$$
CHEMBL255875
  MOE2020           3D

 50 54  0  0  0  0  0  0  0  0999 V2000
   14.2240    9.8520   10.9850 C   0  0  0  0  0  0  0  0  0  0  0  0
   13.8700   11.1140   10.5190 C   0  0  0  0  0  0  0  0  0  0  0  0
   12.5510   11.3900   10.1490 C   0  0  0  0  0  0  0  0  0  0  0  0
   11.5910   10.3790   10.2730 C   0  0  0  0  0  0  0  0  0  0  0  0
   11.9440    9.1140   10.7360 C   0  0  0  0  0  0  0  0  0  0  0  0
   13.2660    8.8450   11.0880 C   0  0  0  0  0  0  0  0  0  0  0  0
   13.7180    7.5960   11.5240 N   0  0  0  0  0  0  0  0  0  0  0  0
   13.1120    6.3830   11.8460 C   0  0  0  0  0  0  0  0  0  0  0  0
   14.0060    5.4180   12.1680 N   0  0  0  0  0  0  0  0  0  0  0  0
   13.5030    4.1990   12.4700 C   0  0  0  0  0  0  0  0  0  0  0  0
   12.1380    3.9520   12.4920 C   0  0  0  0  0  0  0  0  0  0  0  0
   11.2860    5.0010   12.1520 C   0  0  0  0  0  0  0  0  0  0  0  0
   11.7620    6.2270   11.8220 N   0  0  0  0  0  0  0  0  0  0  0  0
    9.9060    4.8000   12.0960 N   0  0  0  0  0  0  0  0  0  0  0  0
    9.2300    3.6150   12.4350 C   0  0  0  0  0  0  0  0  0  0  0  0
    8.6690    2.7680   11.4560 C   0  0  0  0  0  0  0  0  0  0  0  0
    8.0660    1.5500   11.8150 C   0  0  0  0  0  0  0  0  0  0  0  0
    8.0150    1.1360   13.1510 C   0  0  0  0  0  0  0  0  0  0  0  0
    8.5890    1.9730   14.0960 C   0  0  0  0  0  0  0  0  0  0  0  0
    9.1700    3.1660   13.7570 C   0  0  0  0  0  0  0  0  0  0  0  0
    9.6060    3.7770   14.8930 O   0  0  0  0  0  0  0  0  0  0  0  0
    9.5670    2.7760   15.8660 C   0  0  0  0  0  0  0  0  0  0  0  0
    8.6420    1.8130   15.4430 O   0  0  0  0  0  0  0  0  0  0  0  0
    8.7020    3.1780    9.7830 Cl  0  0  0  0  0  0  0  0  0  0  0  0
   12.2180   12.6450    9.6500 N   0  0  0  0  0  0  0  0  0  0  0  0
   11.0010   12.9040    8.8590 C   0  0  0  0  0  0  0  0  0  0  0  0
   11.1020   14.1640    7.9580 C   0  0  0  0  0  0  0  0  0  0  0  0
   11.7940   15.2790    8.5300 O   0  0  0  0  0  0  0  0  0  0  0  0
   12.0190   15.1740    9.9300 C   0  0  0  0  0  0  0  0  0  0  0  0
   12.7990   13.8740   10.2300 C   0  0  0  0  0  0  0  0  0  0  0  0
   15.2530    9.6680   11.2550 H   0  0  0  0  0  0  0  0  0  0  0  0
   14.6350   11.8690   10.4250 H   0  0  0  0  0  0  0  0  0  0  0  0
   10.5620   10.5700   10.0120 H   0  0  0  0  0  0  0  0  0  0  0  0
   11.1810    8.3560   10.8000 H   0  0  0  0  0  0  0  0  0  0  0  0
   14.7260    7.5200   11.4960 H   0  0  0  0  0  0  0  0  0  0  0  0
   14.2040    3.4100   12.6850 H   0  0  0  0  0  0  0  0  0  0  0  0
   11.7530    2.9830   12.7580 H   0  0  0  0  0  0  0  0  0  0  0  0
    9.3870    5.4780   11.5380 H   0  0  0  0  0  0  0  0  0  0  0  0
    7.6310    0.9330   11.0440 H   0  0  0  0  0  0  0  0  0  0  0  0
    7.5420    0.2060   13.4290 H   0  0  0  0  0  0  0  0  0  0  0  0
   10.5580    2.3320   15.9630 H   0  0  0  0  0  0  0  0  0  0  0  0
    9.3280    3.1760   16.8420 H   0  0  0  0  0  0  0  0  0  0  0  0
   10.1400   12.9770    9.5250 H   0  0  0  0  0  0  0  0  0  0  0  0
   10.8140   12.0510    8.2050 H   0  0  0  0  0  0  0  0  0  0  0  0
   11.6210   13.9000    7.0360 H   0  0  0  0  0  0  0  0  0  0  0  0
   10.1030   14.4840    7.6580 H   0  0  0  0  0  0  0  0  0  0  0  0
   12.5900   16.0390   10.2660 H   0  0  0  0  0  0  0  0  0  0  0  0
   11.0720   15.1970   10.4720 H   0  0  0  0  0  0  0  0  0  0  0  0
   12.8450   13.7620   11.3130 H   0  0  0  0  0  0  0  0  0  0  0  0
   13.8270   13.9810    9.8820 H   0  0  0  0  0  0  0  0  0  0  0  0
  1  2  1  0  0  0  0
  1  6  2  0  0  0  0
  1 31  1  0  0  0  0
  2  3  2  0  0  0  0
  2 32  1  0  0  0  0
  3  4  1  0  0  0  0
  3 25  1  0  0  0  0
  4  5  2  0  0  0  0
  4 33  1  0  0  0  0
  5  6  1  0  0  0  0
  5 34  1  0  0  0  0
  6  7  1  0  0  0  0
  7  8  1  0  0  0  0
  7 35  1  0  0  0  0
  8  9  1  0  0  0  0
  8 13  2  0  0  0  0
  9 10  2  0  0  0  0
 10 11  1  0  0  0  0
 10 36  1  0  0  0  0
 11 12  2  0  0  0  0
 11 37  1  0  0  0  0
 12 13  1  0  0  0  0
 12 14  1  0  0  0  0
 14 15  1  0  0  0  0
 14 38  1  0  0  0  0
 15 16  1  0  0  0  0
 15 20  2  0  0  0  0
 16 17  2  0  0  0  0
 16 24  1  0  0  0  0
 17 18  1  0  0  0  0
 17 39  1  0  0  0  0
 18 19  2  0  0  0  0
 18 40  1  0  0  0  0
 19 20  1  0  0  0  0
 19 23  1  0  0  0  0
 20 21  1  0  0  0  0
 21 22  1  0  0  0  0
 22 23  1  0  0  0  0
 22 41  1  0  0  0  0
 22 42  1  0  0  0  0
 25 26  1  0  0  0  0
 25 30  1  0  0  0  0
 26 27  1  0  0  0  0
 26 43  1  0  0  0  0
 26 44  1  0  0  0  0
 27 28  1  0  0  0  0
 27 45  1  0  0  0  0
 27 46  1  0  0  0  0
 28 29  1  0  0  0  0
 29 30  1  0  0  0  0
 29 47  1  0  0  0  0
 29 48  1  0  0  0  0
 30 49  1  0  0  0  0
 30 50  1  0  0  0  0
M  END
>  <paper_pIC50>
6

$$$$
CHEMBL257771
  MOE2020           3D

 50 54  0  0  0  0  0  0  0  0999 V2000
   10.2770   10.2380    9.7190 C   0  0  0  0  0  0  0  0  0  0  0  0
   10.7010   11.5570    9.7540 C   0  0  0  0  0  0  0  0  0  0  0  0
   11.9700   11.8610   10.2320 C   0  0  0  0  0  0  0  0  0  0  0  0
   12.8410   10.8650   10.6980 C   0  0  0  0  0  0  0  0  0  0  0  0
   12.3850    9.5060   10.7240 C   0  0  0  0  0  0  0  0  0  0  0  0
   11.1130    9.2320   10.1910 C   0  0  0  0  0  0  0  0  0  0  0  0
   13.1600    8.4340   11.2460 N   0  0  0  0  0  0  0  0  0  0  0  0
   12.8400    7.1140   11.6460 C   0  0  0  0  0  0  0  0  0  0  0  0
   13.8980    6.3220   11.9670 N   0  0  0  0  0  0  0  0  0  0  0  0
   13.6200    5.0390   12.3310 C   0  0  0  0  0  0  0  0  0  0  0  0
   12.3220    4.5450   12.4080 C   0  0  0  0  0  0  0  0  0  0  0  0
   11.2920    5.4220   12.0880 C   0  0  0  0  0  0  0  0  0  0  0  0
   11.5420    6.7040   11.7150 N   0  0  0  0  0  0  0  0  0  0  0  0
    9.9570    5.0070   12.0850 N   0  0  0  0  0  0  0  0  0  0  0  0
    9.4010    3.7520   12.4040 C   0  0  0  0  0  0  0  0  0  0  0  0
    8.8530    2.9110   11.4080 C   0  0  0  0  0  0  0  0  0  0  0  0
    8.2830    1.6690   11.7330 C   0  0  0  0  0  0  0  0  0  0  0  0
    8.2250    1.2290   13.0570 C   0  0  0  0  0  0  0  0  0  0  0  0
    8.7660    2.0620   14.0240 C   0  0  0  0  0  0  0  0  0  0  0  0
    9.3400    3.2700   13.7170 C   0  0  0  0  0  0  0  0  0  0  0  0
    9.7100    3.8740   14.8800 O   0  0  0  0  0  0  0  0  0  0  0  0
    9.6440    2.8580   15.8410 C   0  0  0  0  0  0  0  0  0  0  0  0
    8.7600    1.8860   15.3680 O   0  0  0  0  0  0  0  0  0  0  0  0
    8.8100    3.3750    9.7520 Cl  0  0  0  0  0  0  0  0  0  0  0  0
   14.1480   11.2850   10.9760 N   0  0  0  0  0  0  0  0  0  0  0  0
   14.9800   11.6040    9.7980 C   0  0  0  0  0  0  0  0  0  0  0  0
   15.6540   13.0060    9.7290 C   0  0  0  0  0  0  0  0  0  0  0  0
   16.2300   13.4790   10.9470 O   0  0  0  0  0  0  0  0  0  0  0  0
   15.9330   12.6990   12.0970 C   0  0  0  0  0  0  0  0  0  0  0  0
   14.4620   12.2440   12.0590 C   0  0  0  0  0  0  0  0  0  0  0  0
    9.3030    9.9910    9.3200 H   0  0  0  0  0  0  0  0  0  0  0  0
   10.0540   12.3480    9.4030 H   0  0  0  0  0  0  0  0  0  0  0  0
   12.2900   12.8920   10.2140 H   0  0  0  0  0  0  0  0  0  0  0  0
   10.7500    8.2240   10.1000 H   0  0  0  0  0  0  0  0  0  0  0  0
   14.1440    8.6420   11.3480 H   0  0  0  0  0  0  0  0  0  0  0  0
   14.4440    4.3840   12.5720 H   0  0  0  0  0  0  0  0  0  0  0  0
   12.1190    3.5260   12.7020 H   0  0  0  0  0  0  0  0  0  0  0  0
    9.3470    5.6180   11.5390 H   0  0  0  0  0  0  0  0  0  0  0  0
    7.8620    1.0600   10.9470 H   0  0  0  0  0  0  0  0  0  0  0  0
    7.7620    0.2880   13.3140 H   0  0  0  0  0  0  0  0  0  0  0  0
   10.6320    2.4210   15.9780 H   0  0  0  0  0  0  0  0  0  0  0  0
    9.3480    3.2330   16.8120 H   0  0  0  0  0  0  0  0  0  0  0  0
   15.7270   10.8260    9.7280 H   0  0  0  0  0  0  0  0  0  0  0  0
   14.3830   11.5420    8.8930 H   0  0  0  0  0  0  0  0  0  0  0  0
   16.4300   12.9940    8.9630 H   0  0  0  0  0  0  0  0  0  0  0  0
   14.9190   13.7420    9.4010 H   0  0  0  0  0  0  0  0  0  0  0  0
   16.6060   11.8450   12.1680 H   0  0  0  0  0  0  0  0  0  0  0  0
   16.1100   13.3110   12.9810 H   0  0  0  0  0  0  0  0  0  0  0  0
   13.8380   13.1320   11.9500 H   0  0  0  0  0  0  0  0  0  0  0  0
   14.2570   11.8300   13.0350 H   0  0  0  0  0  0  0  0  0  0  0  0
  1  2  1  0  0  0  0
  1  6  2  0  0  0  0
  1 31  1  0  0  0  0
  2  3  2  0  0  0  0
  2 32  1  0  0  0  0
  3  4  1  0  0  0  0
  3 33  1  0  0  0  0
  4  5  2  0  0  0  0
  4 25  1  0  0  0  0
  5  6  1  0  0  0  0
  5  7  1  0  0  0  0
  6 34  1  0  0  0  0
  7  8  1  0  0  0  0
  7 35  1  0  0  0  0
  8  9  1  0  0  0  0
  8 13  2  0  0  0  0
  9 10  2  0  0  0  0
 10 11  1  0  0  0  0
 10 36  1  0  0  0  0
 11 12  2  0  0  0  0
 11 37  1  0  0  0  0
 12 13  1  0  0  0  0
 12 14  1  0  0  0  0
 14 15  1  0  0  0  0
 14 38  1  0  0  0  0
 15 16  1  0  0  0  0
 15 20  2  0  0  0  0
 16 17  2  0  0  0  0
 16 24  1  0  0  0  0
 17 18  1  0  0  0  0
 17 39  1  0  0  0  0
 18 19  2  0  0  0  0
 18 40  1  0  0  0  0
 19 20  1  0  0  0  0
 19 23  1  0  0  0  0
 20 21  1  0  0  0  0
 21 22  1  0  0  0  0
 22 23  1  0  0  0  0
 22 41  1  0  0  0  0
 22 42  1  0  0  0  0
 25 26  1  0  0  0  0
 25 30  1  0  0  0  0
 26 27  1  0  0  0  0
 26 43  1  0  0  0  0
 26 44  1  0  0  0  0
 27 28  1  0  0  0  0
 27 45  1  0  0  0  0
 27 46  1  0  0  0  0
 28 29  1  0  0  0  0
 29 30  1  0  0  0  0
 29 47  1  0  0  0  0
 29 48  1  0  0  0  0
 30 49  1  0  0  0  0
 30 50  1  0  0  0  0
M  END
>  <paper_pIC50>
5.1051302

$$$$
CHEMBL255874
  MOE2020           3D

 50 54  0  0  0  0  0  0  0  0999 V2000
   10.8660   10.1410   10.1890 C   0  0  0  0  0  0  0  0  0  0  0  0
   11.4460    8.9190   10.5150 C   0  0  0  0  0  0  0  0  0  0  0  0
   12.7980    8.8410   10.8620 C   0  0  0  0  0  0  0  0  0  0  0  0
   13.5720   10.0000   10.8100 C   0  0  0  0  0  0  0  0  0  0  0  0
   13.0110   11.2420   10.4800 C   0  0  0  0  0  0  0  0  0  0  0  0
   11.6430   11.2950   10.1880 C   0  0  0  0  0  0  0  0  0  0  0  0
   13.7910   12.3940   10.4910 N   0  0  0  0  0  0  0  0  0  0  0  0
   15.1860   12.4170   10.0250 C   0  0  0  0  0  0  0  0  0  0  0  0
   16.0570   13.3640   10.8910 C   0  0  0  0  0  0  0  0  0  0  0  0
   15.3690   14.5320   11.3560 O   0  0  0  0  0  0  0  0  0  0  0  0
   14.2670   14.9090   10.5370 C   0  0  0  0  0  0  0  0  0  0  0  0
   13.2250   13.7620   10.4960 C   0  0  0  0  0  0  0  0  0  0  0  0
   13.4380    7.6570   11.2600 N   0  0  0  0  0  0  0  0  0  0  0  0
   12.9620    6.4150   11.6830 C   0  0  0  0  0  0  0  0  0  0  0  0
   13.9250    5.5380   12.0570 N   0  0  0  0  0  0  0  0  0  0  0  0
   13.5040    4.3110   12.4550 C   0  0  0  0  0  0  0  0  0  0  0  0
   12.1550    3.9720   12.5100 C   0  0  0  0  0  0  0  0  0  0  0  0
   11.2370    4.9410   12.1140 C   0  0  0  0  0  0  0  0  0  0  0  0
   11.6310    6.1650   11.7030 N   0  0  0  0  0  0  0  0  0  0  0  0
    9.8700    4.6830   12.0700 N   0  0  0  0  0  0  0  0  0  0  0  0
    9.2240    3.4960   12.4450 C   0  0  0  0  0  0  0  0  0  0  0  0
    8.6480    2.6320   11.4910 C   0  0  0  0  0  0  0  0  0  0  0  0
    8.0360    1.4320   11.8880 C   0  0  0  0  0  0  0  0  0  0  0  0
    7.9940    1.0520   13.2340 C   0  0  0  0  0  0  0  0  0  0  0  0
    8.5870    1.9060   14.1530 C   0  0  0  0  0  0  0  0  0  0  0  0
    9.1770    3.0820   13.7770 C   0  0  0  0  0  0  0  0  0  0  0  0
    9.6200    3.7250   14.8920 O   0  0  0  0  0  0  0  0  0  0  0  0
    9.5750    2.7550   15.8950 C   0  0  0  0  0  0  0  0  0  0  0  0
    8.6430    1.7860   15.5030 O   0  0  0  0  0  0  0  0  0  0  0  0
    8.6630    3.0090    9.8090 Cl  0  0  0  0  0  0  0  0  0  0  0  0
    9.8160   10.1970    9.9420 H   0  0  0  0  0  0  0  0  0  0  0  0
   10.8210    8.0430   10.4900 H   0  0  0  0  0  0  0  0  0  0  0  0
   14.6120    9.9390   11.0860 H   0  0  0  0  0  0  0  0  0  0  0  0
   11.1660   12.2340    9.9530 H   0  0  0  0  0  0  0  0  0  0  0  0
   15.6300   11.4260   10.0500 H   0  0  0  0  0  0  0  0  0  0  0  0
   15.2180   12.7160    8.9760 H   0  0  0  0  0  0  0  0  0  0  0  0
   16.4120   12.8200   11.7670 H   0  0  0  0  0  0  0  0  0  0  0  0
   16.9510   13.6600   10.3400 H   0  0  0  0  0  0  0  0  0  0  0  0
   13.8130   15.8170   10.9360 H   0  0  0  0  0  0  0  0  0  0  0  0
   14.6140   15.1560    9.5320 H   0  0  0  0  0  0  0  0  0  0  0  0
   12.6110   13.8940    9.6040 H   0  0  0  0  0  0  0  0  0  0  0  0
   12.5520   13.8660   11.3460 H   0  0  0  0  0  0  0  0  0  0  0  0
   14.4490    7.6920   11.2510 H   0  0  0  0  0  0  0  0  0  0  0  0
   14.2580    3.5910   12.7270 H   0  0  0  0  0  0  0  0  0  0  0  0
   11.8290    3.0030   12.8440 H   0  0  0  0  0  0  0  0  0  0  0  0
    9.3300    5.3460   11.5140 H   0  0  0  0  0  0  0  0  0  0  0  0
    7.5830    0.8060   11.1370 H   0  0  0  0  0  0  0  0  0  0  0  0
    7.5080    0.1380   13.5400 H   0  0  0  0  0  0  0  0  0  0  0  0
   10.5630    2.3090   16.0050 H   0  0  0  0  0  0  0  0  0  0  0  0
    9.3390    3.1870   16.8580 H   0  0  0  0  0  0  0  0  0  0  0  0
  1  2  1  0  0  0  0
  1  6  2  0  0  0  0
  1 31  1  0  0  0  0
  2  3  2  0  0  0  0
  2 32  1  0  0  0  0
  3  4  1  0  0  0  0
  3 13  1  0  0  0  0
  4  5  2  0  0  0  0
  4 33  1  0  0  0  0
  5  6  1  0  0  0  0
  5  7  1  0  0  0  0
  6 34  1  0  0  0  0
  7  8  1  0  0  0  0
  7 12  1  0  0  0  0
  8  9  1  0  0  0  0
  8 35  1  0  0  0  0
  8 36  1  0  0  0  0
  9 10  1  0  0  0  0
  9 37  1  0  0  0  0
  9 38  1  0  0  0  0
 10 11  1  0  0  0  0
 11 12  1  0  0  0  0
 11 39  1  0  0  0  0
 11 40  1  0  0  0  0
 12 41  1  0  0  0  0
 12 42  1  0  0  0  0
 13 14  1  0  0  0  0
 13 43  1  0  0  0  0
 14 15  1  0  0  0  0
 14 19  2  0  0  0  0
 15 16  2  0  0  0  0
 16 17  1  0  0  0  0
 16 44  1  0  0  0  0
 17 18  2  0  0  0  0
 17 45  1  0  0  0  0
 18 19  1  0  0  0  0
 18 20  1  0  0  0  0
 20 21  1  0  0  0  0
 20 46  1  0  0  0  0
 21 22  1  0  0  0  0
 21 26  2  0  0  0  0
 22 23  2  0  0  0  0
 22 30  1  0  0  0  0
 23 24  1  0  0  0  0
 23 47  1  0  0  0  0
 24 25  2  0  0  0  0
 24 48  1  0  0  0  0
 25 26  1  0  0  0  0
 25 29  1  0  0  0  0
 26 27  1  0  0  0  0
 27 28  1  0  0  0  0
 28 29  1  0  0  0  0
 28 49  1  0  0  0  0
 28 50  1  0  0  0  0
M  END
>  <paper_pIC50>
6.2365718

$$$$
CHEMBL496574
  MOE2020           3D

 45 48  0  0  0  0  0  0  0  0999 V2000
   14.3320   13.0250    7.7470 C   0  0  0  0  0  0  0  0  0  0  0  0
   14.8430   13.5830    9.4580 S   0  0  0  0  0  0  0  0  0  0  0  0
   16.2040   14.1200    9.3840 O   0  0  0  0  0  0  0  0  0  0  0  0
   13.7610   14.3640   10.0630 O   0  0  0  0  0  0  0  0  0  0  0  0
   14.9670   12.0470   10.3160 N   0  0  0  0  0  0  0  0  0  0  0  0
   13.9040   11.1630   10.5490 C   0  0  0  0  0  0  0  0  0  0  0  0
   12.5540   11.5050   10.4250 C   0  0  0  0  0  0  0  0  0  0  0  0
   11.5600   10.5480   10.6360 C   0  0  0  0  0  0  0  0  0  0  0  0
   11.9090    9.2380   10.9670 C   0  0  0  0  0  0  0  0  0  0  0  0
   13.2540    8.8870   11.1120 C   0  0  0  0  0  0  0  0  0  0  0  0
   14.2340    9.8610   10.9110 C   0  0  0  0  0  0  0  0  0  0  0  0
   13.7030    7.6090   11.4580 N   0  0  0  0  0  0  0  0  0  0  0  0
   13.1000    6.4000   11.8030 C   0  0  0  0  0  0  0  0  0  0  0  0
   13.9970    5.4430   12.1370 N   0  0  0  0  0  0  0  0  0  0  0  0
   13.5000    4.2270   12.4620 C   0  0  0  0  0  0  0  0  0  0  0  0
   12.1360    3.9740   12.4890 C   0  0  0  0  0  0  0  0  0  0  0  0
   11.2790    5.0160   12.1340 C   0  0  0  0  0  0  0  0  0  0  0  0
   11.7500    6.2400   11.7820 N   0  0  0  0  0  0  0  0  0  0  0  0
    9.9000    4.8080   12.0850 N   0  0  0  0  0  0  0  0  0  0  0  0
    9.2290    3.6210   12.4280 C   0  0  0  0  0  0  0  0  0  0  0  0
    8.6700    2.7710   11.4500 C   0  0  0  0  0  0  0  0  0  0  0  0
    8.0680    1.5530   11.8100 C   0  0  0  0  0  0  0  0  0  0  0  0
    8.0200    1.1400   13.1460 C   0  0  0  0  0  0  0  0  0  0  0  0
    8.5920    1.9790   14.0910 C   0  0  0  0  0  0  0  0  0  0  0  0
    9.1720    3.1720   13.7510 C   0  0  0  0  0  0  0  0  0  0  0  0
    9.6080    3.7840   14.8860 O   0  0  0  0  0  0  0  0  0  0  0  0
    9.5690    2.7830   15.8600 C   0  0  0  0  0  0  0  0  0  0  0  0
    8.6460    1.8190   15.4370 O   0  0  0  0  0  0  0  0  0  0  0  0
    8.7010    3.1800    9.7770 Cl  0  0  0  0  0  0  0  0  0  0  0  0
   15.1100   12.3790    7.3440 H   0  0  0  0  0  0  0  0  0  0  0  0
   13.3930   12.4820    7.8200 H   0  0  0  0  0  0  0  0  0  0  0  0
   14.2120   13.9030    7.1160 H   0  0  0  0  0  0  0  0  0  0  0  0
   15.9100   11.6850   10.4010 H   0  0  0  0  0  0  0  0  0  0  0  0
   12.2480   12.5060   10.1680 H   0  0  0  0  0  0  0  0  0  0  0  0
   10.5200   10.8270   10.5460 H   0  0  0  0  0  0  0  0  0  0  0  0
   11.1260    8.5140   11.1230 H   0  0  0  0  0  0  0  0  0  0  0  0
   15.2740    9.6120   11.0320 H   0  0  0  0  0  0  0  0  0  0  0  0
   14.7100    7.5220   11.4070 H   0  0  0  0  0  0  0  0  0  0  0  0
   14.2050    3.4460   12.6920 H   0  0  0  0  0  0  0  0  0  0  0  0
   11.7570    3.0070   12.7700 H   0  0  0  0  0  0  0  0  0  0  0  0
    9.3780    5.4790   11.5220 H   0  0  0  0  0  0  0  0  0  0  0  0
    7.6350    0.9350   11.0400 H   0  0  0  0  0  0  0  0  0  0  0  0
    7.5480    0.2100   13.4260 H   0  0  0  0  0  0  0  0  0  0  0  0
   10.5600    2.3390   15.9590 H   0  0  0  0  0  0  0  0  0  0  0  0
    9.3270    3.1820   16.8370 H   0  0  0  0  0  0  0  0  0  0  0  0
  1  2  1  0  0  0  0
  1 30  1  0  0  0  0
  1 31  1  0  0  0  0
  1 32  1  0  0  0  0
  2  3  2  0  0  0  0
  2  4  2  0  0  0  0
  2  5  1  0  0  0  0
  5  6  1  0  0  0  0
  5 33  1  0  0  0  0
  6  7  1  0  0  0  0
  6 11  2  0  0  0  0
  7  8  2  0  0  0  0
  7 34  1  0  0  0  0
  8  9  1  0  0  0  0
  8 35  1  0  0  0  0
  9 10  2  0  0  0  0
  9 36  1  0  0  0  0
 10 11  1  0  0  0  0
 10 12  1  0  0  0  0
 11 37  1  0  0  0  0
 12 13  1  0  0  0  0
 12 38  1  0  0  0  0
 13 14  1  0  0  0  0
 13 18  2  0  0  0  0
 14 15  2  0  0  0  0
 15 16  1  0  0  0  0
 15 39  1  0  0  0  0
 16 17  2  0  0  0  0
 16 40  1  0  0  0  0
 17 18  1  0  0  0  0
 17 19  1  0  0  0  0
 19 20  1  0  0  0  0
 19 41  1  0  0  0  0
 20 21  1  0  0  0  0
 20 25  2  0  0  0  0
 21 22  2  0  0  0  0
 21 29  1  0  0  0  0
 22 23  1  0  0  0  0
 22 42  1  0  0  0  0
 23 24  2  0  0  0  0
 23 43  1  0  0  0  0
 24 25  1  0  0  0  0
 24 28  1  0  0  0  0
 25 26  1  0  0  0  0
 26 27  1  0  0  0  0
 27 28  1  0  0  0  0
 27 44  1  0  0  0  0
 27 45  1  0  0  0  0
M  END
>  <paper_pIC50>
6.1001797

$$$$
CHEMBL258016
  MOE2020           3D

 43 46  0  0  0  0  0  0  0  0999 V2000
   12.6110   11.3480   10.0090 C   0  0  0  0  0  0  0  0  0  0  0  0
   11.6340   10.3550   10.1170 C   0  0  0  0  0  0  0  0  0  0  0  0
   11.9690    9.1110   10.6460 C   0  0  0  0  0  0  0  0  0  0  0  0
   13.2760    8.8590   11.0680 C   0  0  0  0  0  0  0  0  0  0  0  0
   14.2380    9.8650   10.9800 C   0  0  0  0  0  0  0  0  0  0  0  0
   13.9100   11.1100   10.4560 C   0  0  0  0  0  0  0  0  0  0  0  0
   13.7140    7.6240   11.5510 N   0  0  0  0  0  0  0  0  0  0  0  0
   13.1090    6.4070   11.8570 C   0  0  0  0  0  0  0  0  0  0  0  0
   14.0040    5.4460   12.1810 N   0  0  0  0  0  0  0  0  0  0  0  0
   13.5050    4.2220   12.4740 C   0  0  0  0  0  0  0  0  0  0  0  0
   12.1410    3.9690   12.4870 C   0  0  0  0  0  0  0  0  0  0  0  0
   11.2860    5.0170   12.1470 C   0  0  0  0  0  0  0  0  0  0  0  0
   11.7600    6.2470   11.8210 N   0  0  0  0  0  0  0  0  0  0  0  0
    9.9070    4.8090   12.0880 N   0  0  0  0  0  0  0  0  0  0  0  0
    9.2340    3.6230   12.4280 C   0  0  0  0  0  0  0  0  0  0  0  0
    8.6730    2.7750   11.4490 C   0  0  0  0  0  0  0  0  0  0  0  0
    8.0700    1.5570   11.8080 C   0  0  0  0  0  0  0  0  0  0  0  0
    8.0200    1.1420   13.1430 C   0  0  0  0  0  0  0  0  0  0  0  0
    8.5930    1.9800   14.0890 C   0  0  0  0  0  0  0  0  0  0  0  0
    9.1750    3.1730   13.7500 C   0  0  0  0  0  0  0  0  0  0  0  0
    9.6110    3.7820   14.8860 O   0  0  0  0  0  0  0  0  0  0  0  0
    9.5700    2.7810   15.8600 C   0  0  0  0  0  0  0  0  0  0  0  0
    8.6460    1.8190   15.4350 O   0  0  0  0  0  0  0  0  0  0  0  0
    8.7040    3.1870    9.7770 Cl  0  0  0  0  0  0  0  0  0  0  0  0
   10.6230   10.5380    9.7820 H   0  0  0  0  0  0  0  0  0  0  0  0
   11.2110    8.3470   10.6990 H   0  0  0  0  0  0  0  0  0  0  0  0
   15.2520    9.6880   11.3060 H   0  0  0  0  0  0  0  0  0  0  0  0
   14.6710   11.8740   10.3810 H   0  0  0  0  0  0  0  0  0  0  0  0
   14.7220    7.5530   11.5580 H   0  0  0  0  0  0  0  0  0  0  0  0
   14.2080    3.4360   12.6930 H   0  0  0  0  0  0  0  0  0  0  0  0
   11.7600    2.9970   12.7470 H   0  0  0  0  0  0  0  0  0  0  0  0
    9.3840    5.4860   11.5330 H   0  0  0  0  0  0  0  0  0  0  0  0
    7.6360    0.9400   11.0360 H   0  0  0  0  0  0  0  0  0  0  0  0
    7.5470    0.2120   13.4210 H   0  0  0  0  0  0  0  0  0  0  0  0
   10.5600    2.3370   15.9600 H   0  0  0  0  0  0  0  0  0  0  0  0
    9.3270    3.1800   16.8360 H   0  0  0  0  0  0  0  0  0  0  0  0
   12.2220   12.9270    9.2720 S   0  0  0  0  0  0  0  0  0  0  0  0
   12.9110   13.9550   10.0580 O   0  0  0  0  0  0  0  0  0  0  0  0
   13.0510   12.8140    7.5920 C   0  0  0  0  0  0  0  0  0  0  0  0
   10.7730   12.9880    9.0610 O   0  0  0  0  0  0  0  0  0  0  0  0
   12.5990   12.0000    7.0300 H   0  0  0  0  0  0  0  0  0  0  0  0
   12.9010   13.7560    7.0680 H   0  0  0  0  0  0  0  0  0  0  0  0
   14.1150   12.6290    7.7290 H   0  0  0  0  0  0  0  0  0  0  0  0
  1  2  1  0  0  0  0
  1  6  2  0  0  0  0
  1 37  1  0  0  0  0
  2  3  2  0  0  0  0
  2 25  1  0  0  0  0
  3  4  1  0  0  0  0
  3 26  1  0  0  0  0
  4  5  2  0  0  0  0
  4  7  1  0  0  0  0
  5  6  1  0  0  0  0
  5 27  1  0  0  0  0
  6 28  1  0  0  0  0
  7  8  1  0  0  0  0
  7 29  1  0  0  0  0
  8  9  1  0  0  0  0
  8 13  2  0  0  0  0
  9 10  2  0  0  0  0
 10 11  1  0  0  0  0
 10 30  1  0  0  0  0
 11 12  2  0  0  0  0
 11 31  1  0  0  0  0
 12 13  1  0  0  0  0
 12 14  1  0  0  0  0
 14 15  1  0  0  0  0
 14 32  1  0  0  0  0
 15 16  1  0  0  0  0
 15 20  2  0  0  0  0
 16 17  2  0  0  0  0
 16 24  1  0  0  0  0
 17 18  1  0  0  0  0
 17 33  1  0  0  0  0
 18 19  2  0  0  0  0
 18 34  1  0  0  0  0
 19 20  1  0  0  0  0
 19 23  1  0  0  0  0
 20 21  1  0  0  0  0
 21 22  1  0  0  0  0
 22 23  1  0  0  0  0
 22 35  1  0  0  0  0
 22 36  1  0  0  0  0
 37 38  2  0  0  0  0
 37 39  1  0  0  0  0
 37 40  2  0  0  0  0
 39 41  1  0  0  0  0
 39 42  1  0  0  0  0
 39 43  1  0  0  0  0
M  END
>  <paper_pIC50>
6.2006593

$$$$
CHEMBL497194
  MOE2020           3D

 49 52  0  0  0  0  0  0  0  0999 V2000
   15.5280   12.8710    9.4210 C   0  0  0  0  0  0  0  0  0  0  0  0
   14.7490   12.5520   11.0940 S   0  0  0  0  0  0  0  0  0  0  0  0
   15.7960   12.1900   12.0550 O   0  0  0  0  0  0  0  0  0  0  0  0
   13.8260   13.6530   11.3880 O   0  0  0  0  0  0  0  0  0  0  0  0
   13.7610   11.0940   10.8020 C   0  0  0  0  0  0  0  0  0  0  0  0
   14.2500    9.8240   11.1500 C   0  0  0  0  0  0  0  0  0  0  0  0
   13.4320    8.6960   11.0230 C   0  0  0  0  0  0  0  0  0  0  0  0
   12.1850    8.8340   10.4240 C   0  0  0  0  0  0  0  0  0  0  0  0
   11.6880   10.0910   10.0980 C   0  0  0  0  0  0  0  0  0  0  0  0
   12.4660   11.2320   10.2930 C   0  0  0  0  0  0  0  0  0  0  0  0
    9.9870   10.1690    9.6210 S   0  0  0  0  0  0  0  0  0  0  0  0
    9.5880   11.5750    9.5190 O   0  0  0  0  0  0  0  0  0  0  0  0
    9.7980    9.2370    8.5060 O   0  0  0  0  0  0  0  0  0  0  0  0
    9.2350    9.4220   11.1630 C   0  0  0  0  0  0  0  0  0  0  0  0
   13.8790    7.4570   11.4910 N   0  0  0  0  0  0  0  0  0  0  0  0
   13.2200    6.2740   11.8390 C   0  0  0  0  0  0  0  0  0  0  0  0
   14.0650    5.2680   12.1510 N   0  0  0  0  0  0  0  0  0  0  0  0
   13.5080    4.0750   12.4620 C   0  0  0  0  0  0  0  0  0  0  0  0
   12.1350    3.8950   12.5050 C   0  0  0  0  0  0  0  0  0  0  0  0
   11.3270    4.9820   12.1770 C   0  0  0  0  0  0  0  0  0  0  0  0
   11.8600    6.1870   11.8450 N   0  0  0  0  0  0  0  0  0  0  0  0
    9.9390    4.8320   12.1230 N   0  0  0  0  0  0  0  0  0  0  0  0
    9.2380    3.6560   12.4490 C   0  0  0  0  0  0  0  0  0  0  0  0
    8.6780    2.8190   11.4590 C   0  0  0  0  0  0  0  0  0  0  0  0
    8.0720    1.5980   11.8030 C   0  0  0  0  0  0  0  0  0  0  0  0
    8.0160    1.1710   13.1340 C   0  0  0  0  0  0  0  0  0  0  0  0
    8.5850    2.0000   14.0910 C   0  0  0  0  0  0  0  0  0  0  0  0
    9.1690    3.1950   13.7660 C   0  0  0  0  0  0  0  0  0  0  0  0
    9.6080    3.7920   14.9080 O   0  0  0  0  0  0  0  0  0  0  0  0
    9.5660    2.7790   15.8690 C   0  0  0  0  0  0  0  0  0  0  0  0
    8.6370    1.8250   15.4350 O   0  0  0  0  0  0  0  0  0  0  0  0
    8.7210    3.2460    9.7910 Cl  0  0  0  0  0  0  0  0  0  0  0  0
   16.0640   11.9780    9.1120 H   0  0  0  0  0  0  0  0  0  0  0  0
   14.7460   13.1060    8.7020 H   0  0  0  0  0  0  0  0  0  0  0  0
   16.2210   13.7040    9.5160 H   0  0  0  0  0  0  0  0  0  0  0  0
   15.2380    9.7230   11.5760 H   0  0  0  0  0  0  0  0  0  0  0  0
   11.5740    7.9640   10.2410 H   0  0  0  0  0  0  0  0  0  0  0  0
   12.0580   12.2130   10.0830 H   0  0  0  0  0  0  0  0  0  0  0  0
    9.5250   10.0480   12.0030 H   0  0  0  0  0  0  0  0  0  0  0  0
    8.1530    9.3560   11.0530 H   0  0  0  0  0  0  0  0  0  0  0  0
    9.6860    8.4520   11.3400 H   0  0  0  0  0  0  0  0  0  0  0  0
   14.8880    7.3540   11.4410 H   0  0  0  0  0  0  0  0  0  0  0  0
   14.1720    3.2480   12.6500 H   0  0  0  0  0  0  0  0  0  0  0  0
   11.7110    2.9440   12.7720 H   0  0  0  0  0  0  0  0  0  0  0  0
    9.4390    5.4960   11.5360 H   0  0  0  0  0  0  0  0  0  0  0  0
    7.6420    0.9860   11.0240 H   0  0  0  0  0  0  0  0  0  0  0  0
    7.5440    0.2380   13.4020 H   0  0  0  0  0  0  0  0  0  0  0  0
   10.5550    2.3300   15.9620 H   0  0  0  0  0  0  0  0  0  0  0  0
    9.3290    3.1680   16.8510 H   0  0  0  0  0  0  0  0  0  0  0  0
  1  2  1  0  0  0  0
  1 33  1  0  0  0  0
  1 34  1  0  0  0  0
  1 35  1  0  0  0  0
  2  3  2  0  0  0  0
  2  4  2  0  0  0  0
  2  5  1  0  0  0  0
  5  6  1  0  0  0  0
  5 10  2  0  0  0  0
  6  7  2  0  0  0  0
  6 36  1  0  0  0  0
  7  8  1  0  0  0  0
  7 15  1  0  0  0  0
  8  9  2  0  0  0  0
  8 37  1  0  0  0  0
  9 10  1  0  0  0  0
  9 11  1  0  0  0  0
 10 38  1  0  0  0  0
 11 12  2  0  0  0  0
 11 13  2  0  0  0  0
 11 14  1  0  0  0  0
 14 39  1  0  0  0  0
 14 40  1  0  0  0  0
 14 41  1  0  0  0  0
 15 16  1  0  0  0  0
 15 42  1  0  0  0  0
 16 17  1  0  0  0  0
 16 21  2  0  0  0  0
 17 18  2  0  0  0  0
 18 19  1  0  0  0  0
 18 43  1  0  0  0  0
 19 20  2  0  0  0  0
 19 44  1  0  0  0  0
 20 21  1  0  0  0  0
 20 22  1  0  0  0  0
 22 23  1  0  0  0  0
 22 45  1  0  0  0  0
 23 24  1  0  0  0  0
 23 28  2  0  0  0  0
 24 25  2  0  0  0  0
 24 32  1  0  0  0  0
 25 26  1  0  0  0  0
 25 46  1  0  0  0  0
 26 27  2  0  0  0  0
 26 47  1  0  0  0  0
 27 28  1  0  0  0  0
 27 31  1  0  0  0  0
 28 29  1  0  0  0  0
 29 30  1  0  0  0  0
 30 31  1  0  0  0  0
 30 48  1  0  0  0  0
 30 49  1  0  0  0  0
M  END
>  <paper_pIC50>
6.9430952

$$$$
CHEMBL404444
  MOE2020           3D

 40 43  0  0  0  0  0  0  0  0999 V2000
   14.7680   12.2620   10.4150 C   0  0  0  0  0  0  0  0  0  0  0  0
   13.7150   11.1880   10.6010 C   0  0  0  0  0  0  0  0  0  0  0  0
   12.3570   11.4920   10.4940 C   0  0  0  0  0  0  0  0  0  0  0  0
   11.4010   10.4920   10.6740 C   0  0  0  0  0  0  0  0  0  0  0  0
   11.8010    9.1870   10.9650 C   0  0  0  0  0  0  0  0  0  0  0  0
   13.1590    8.8740   11.0880 C   0  0  0  0  0  0  0  0  0  0  0  0
   14.1070    9.8840   10.9030 C   0  0  0  0  0  0  0  0  0  0  0  0
   13.6500    7.6030   11.4070 N   0  0  0  0  0  0  0  0  0  0  0  0
   13.0740    6.3860   11.7680 C   0  0  0  0  0  0  0  0  0  0  0  0
   13.9840    5.4450   12.1140 N   0  0  0  0  0  0  0  0  0  0  0  0
   13.5000    4.2280   12.4580 C   0  0  0  0  0  0  0  0  0  0  0  0
   12.1390    3.9600   12.4930 C   0  0  0  0  0  0  0  0  0  0  0  0
   11.2700    4.9860   12.1230 C   0  0  0  0  0  0  0  0  0  0  0  0
   11.7270    6.2060   11.7530 N   0  0  0  0  0  0  0  0  0  0  0  0
    9.8930    4.7710   12.0760 N   0  0  0  0  0  0  0  0  0  0  0  0
    9.2260    3.5860   12.4290 C   0  0  0  0  0  0  0  0  0  0  0  0
    8.6610    2.7320   11.4580 C   0  0  0  0  0  0  0  0  0  0  0  0
    8.0560    1.5190   11.8290 C   0  0  0  0  0  0  0  0  0  0  0  0
    8.0090    1.1150   13.1680 C   0  0  0  0  0  0  0  0  0  0  0  0
    8.5870    1.9590   14.1050 C   0  0  0  0  0  0  0  0  0  0  0  0
    9.1700    3.1470   13.7540 C   0  0  0  0  0  0  0  0  0  0  0  0
    9.6090    3.7680   14.8840 O   0  0  0  0  0  0  0  0  0  0  0  0
    9.5680    2.7750   15.8660 C   0  0  0  0  0  0  0  0  0  0  0  0
    8.6420    1.8100   15.4520 O   0  0  0  0  0  0  0  0  0  0  0  0
    8.6890    3.1310    9.7820 Cl  0  0  0  0  0  0  0  0  0  0  0  0
   15.3050   12.1070    9.4780 H   0  0  0  0  0  0  0  0  0  0  0  0
   14.3380   13.2640   10.4240 H   0  0  0  0  0  0  0  0  0  0  0  0
   15.5010   12.2140   11.2220 H   0  0  0  0  0  0  0  0  0  0  0  0
   12.0320   12.5010   10.2800 H   0  0  0  0  0  0  0  0  0  0  0  0
   10.3510   10.7340   10.5990 H   0  0  0  0  0  0  0  0  0  0  0  0
   11.0410    8.4370   11.1020 H   0  0  0  0  0  0  0  0  0  0  0  0
   15.1590    9.6650   11.0010 H   0  0  0  0  0  0  0  0  0  0  0  0
   14.6590    7.5480   11.3600 H   0  0  0  0  0  0  0  0  0  0  0  0
   14.2150    3.4590   12.6980 H   0  0  0  0  0  0  0  0  0  0  0  0
   11.7690    2.9940   12.7910 H   0  0  0  0  0  0  0  0  0  0  0  0
    9.3700    5.4420   11.5150 H   0  0  0  0  0  0  0  0  0  0  0  0
    7.6160    0.8980   11.0640 H   0  0  0  0  0  0  0  0  0  0  0  0
    7.5330    0.1890   13.4550 H   0  0  0  0  0  0  0  0  0  0  0  0
   10.5590    2.3310   15.9670 H   0  0  0  0  0  0  0  0  0  0  0  0
    9.3300    3.1830   16.8400 H   0  0  0  0  0  0  0  0  0  0  0  0
  1  2  1  0  0  0  0
  1 26  1  0  0  0  0
  1 27  1  0  0  0  0
  1 28  1  0  0  0  0
  2  3  1  0  0  0  0
  2  7  2  0  0  0  0
  3  4  2  0  0  0  0
  3 29  1  0  0  0  0
  4  5  1  0  0  0  0
  4 30  1  0  0  0  0
  5  6  2  0  0  0  0
  5 31  1  0  0  0  0
  6  7  1  0  0  0  0
  6  8  1  0  0  0  0
  7 32  1  0  0  0  0
  8  9  1  0  0  0  0
  8 33  1  0  0  0  0
  9 10  1  0  0  0  0
  9 14  2  0  0  0  0
 10 11  2  0  0  0  0
 11 12  1  0  0  0  0
 11 34  1  0  0  0  0
 12 13  2  0  0  0  0
 12 35  1  0  0  0  0
 13 14  1  0  0  0  0
 13 15  1  0  0  0  0
 15 16  1  0  0  0  0
 15 36  1  0  0  0  0
 16 17  1  0  0  0  0
 16 21  2  0  0  0  0
 17 18  2  0  0  0  0
 17 25  1  0  0  0  0
 18 19  1  0  0  0  0
 18 37  1  0  0  0  0
 19 20  2  0  0  0  0
 19 38  1  0  0  0  0
 20 21  1  0  0  0  0
 20 24  1  0  0  0  0
 21 22  1  0  0  0  0
 22 23  1  0  0  0  0
 23 24  1  0  0  0  0
 23 39  1  0  0  0  0
 23 40  1  0  0  0  0
M  END
>  <paper_pIC50>
6.3372421

$$$$
CHEMBL404445
  MOE2020           3D

 40 43  0  0  0  0  0  0  0  0999 V2000
   12.1160   12.8540    9.8760 C   0  0  0  0  0  0  0  0  0  0  0  0
   12.5020   11.4550   10.3120 C   0  0  0  0  0  0  0  0  0  0  0  0
   11.5280   10.4660   10.4580 C   0  0  0  0  0  0  0  0  0  0  0  0
   11.8960    9.1780   10.8420 C   0  0  0  0  0  0  0  0  0  0  0  0
   13.2380    8.8780   11.0900 C   0  0  0  0  0  0  0  0  0  0  0  0
   14.2040    9.8760   10.9520 C   0  0  0  0  0  0  0  0  0  0  0  0
   13.8420   11.1600   10.5600 C   0  0  0  0  0  0  0  0  0  0  0  0
   13.6980    7.6140   11.4740 N   0  0  0  0  0  0  0  0  0  0  0  0
   13.1010    6.4000   11.8120 C   0  0  0  0  0  0  0  0  0  0  0  0
   14.0020    5.4450   12.1450 N   0  0  0  0  0  0  0  0  0  0  0  0
   13.5070    4.2260   12.4640 C   0  0  0  0  0  0  0  0  0  0  0  0
   12.1440    3.9690   12.4910 C   0  0  0  0  0  0  0  0  0  0  0  0
   11.2840    5.0090   12.1390 C   0  0  0  0  0  0  0  0  0  0  0  0
   11.7520    6.2340   11.7920 N   0  0  0  0  0  0  0  0  0  0  0  0
    9.9060    4.7990   12.0870 N   0  0  0  0  0  0  0  0  0  0  0  0
    9.2340    3.6130   12.4300 C   0  0  0  0  0  0  0  0  0  0  0  0
    8.6720    2.7640   11.4530 C   0  0  0  0  0  0  0  0  0  0  0  0
    8.0680    1.5480   11.8140 C   0  0  0  0  0  0  0  0  0  0  0  0
    8.0190    1.1350   13.1500 C   0  0  0  0  0  0  0  0  0  0  0  0
    8.5930    1.9740   14.0940 C   0  0  0  0  0  0  0  0  0  0  0  0
    9.1750    3.1660   13.7530 C   0  0  0  0  0  0  0  0  0  0  0  0
    9.6110    3.7790   14.8880 O   0  0  0  0  0  0  0  0  0  0  0  0
    9.5700    2.7800   15.8630 C   0  0  0  0  0  0  0  0  0  0  0  0
    8.6450    1.8170   15.4410 O   0  0  0  0  0  0  0  0  0  0  0  0
    8.7020    3.1730    9.7800 Cl  0  0  0  0  0  0  0  0  0  0  0  0
   12.7030   13.1550    9.0080 H   0  0  0  0  0  0  0  0  0  0  0  0
   11.0610   12.9260    9.6100 H   0  0  0  0  0  0  0  0  0  0  0  0
   12.3210   13.5670   10.6760 H   0  0  0  0  0  0  0  0  0  0  0  0
   10.4870   10.6930   10.2750 H   0  0  0  0  0  0  0  0  0  0  0  0
   11.1290    8.4290   10.9390 H   0  0  0  0  0  0  0  0  0  0  0  0
   15.2450    9.6700   11.1470 H   0  0  0  0  0  0  0  0  0  0  0  0
   14.6040   11.9180   10.4510 H   0  0  0  0  0  0  0  0  0  0  0  0
   14.7060    7.5420   11.4320 H   0  0  0  0  0  0  0  0  0  0  0  0
   14.2150    3.4460   12.6920 H   0  0  0  0  0  0  0  0  0  0  0  0
   11.7670    3.0000   12.7690 H   0  0  0  0  0  0  0  0  0  0  0  0
    9.3840    5.4740   11.5270 H   0  0  0  0  0  0  0  0  0  0  0  0
    7.6330    0.9300   11.0440 H   0  0  0  0  0  0  0  0  0  0  0  0
    7.5450    0.2070   13.4310 H   0  0  0  0  0  0  0  0  0  0  0  0
   10.5600    2.3350   15.9630 H   0  0  0  0  0  0  0  0  0  0  0  0
    9.3290    3.1810   16.8390 H   0  0  0  0  0  0  0  0  0  0  0  0
  1  2  1  0  0  0  0
  1 26  1  0  0  0  0
  1 27  1  0  0  0  0
  1 28  1  0  0  0  0
  2  3  1  0  0  0  0
  2  7  2  0  0  0  0
  3  4  2  0  0  0  0
  3 29  1  0  0  0  0
  4  5  1  0  0  0  0
  4 30  1  0  0  0  0
  5  6  2  0  0  0  0
  5  8  1  0  0  0  0
  6  7  1  0  0  0  0
  6 31  1  0  0  0  0
  7 32  1  0  0  0  0
  8  9  1  0  0  0  0
  8 33  1  0  0  0  0
  9 10  1  0  0  0  0
  9 14  2  0  0  0  0
 10 11  2  0  0  0  0
 11 12  1  0  0  0  0
 11 34  1  0  0  0  0
 12 13  2  0  0  0  0
 12 35  1  0  0  0  0
 13 14  1  0  0  0  0
 13 15  1  0  0  0  0
 15 16  1  0  0  0  0
 15 36  1  0  0  0  0
 16 17  1  0  0  0  0
 16 21  2  0  0  0  0
 17 18  2  0  0  0  0
 17 25  1  0  0  0  0
 18 19  1  0  0  0  0
 18 37  1  0  0  0  0
 19 20  2  0  0  0  0
 19 38  1  0  0  0  0
 20 21  1  0  0  0  0
 20 24  1  0  0  0  0
 21 22  1  0  0  0  0
 22 23  1  0  0  0  0
 23 24  1  0  0  0  0
 23 39  1  0  0  0  0
 23 40  1  0  0  0  0
M  END
>  <paper_pIC50>
5.7958798

$$$$
CHEMBL254157
  MOE2020           3D

 40 43  0  0  0  0  0  0  0  0999 V2000
   11.0520    8.4520    9.9440 C   0  0  0  0  0  0  0  0  0  0  0  0
   12.1570    9.3780   10.4220 C   0  0  0  0  0  0  0  0  0  0  0  0
   11.9740   10.7490   10.1990 C   0  0  0  0  0  0  0  0  0  0  0  0
   12.9860   11.6620   10.4860 C   0  0  0  0  0  0  0  0  0  0  0  0
   14.2000   11.2120   10.9940 C   0  0  0  0  0  0  0  0  0  0  0  0
   14.3810    9.8550   11.2490 C   0  0  0  0  0  0  0  0  0  0  0  0
   13.3660    8.9240   10.9980 C   0  0  0  0  0  0  0  0  0  0  0  0
   13.7220    7.5950   11.2750 N   0  0  0  0  0  0  0  0  0  0  0  0
   13.1110    6.4320   11.7490 C   0  0  0  0  0  0  0  0  0  0  0  0
   14.0090    5.4720   12.0710 N   0  0  0  0  0  0  0  0  0  0  0  0
   13.5160    4.2700   12.4510 C   0  0  0  0  0  0  0  0  0  0  0  0
   12.1530    4.0260   12.5260 C   0  0  0  0  0  0  0  0  0  0  0  0
   11.2930    5.0720   12.1900 C   0  0  0  0  0  0  0  0  0  0  0  0
   11.7620    6.2920   11.8230 N   0  0  0  0  0  0  0  0  0  0  0  0
    9.9130    4.8650   12.1510 N   0  0  0  0  0  0  0  0  0  0  0  0
    9.2480    3.6660   12.4660 C   0  0  0  0  0  0  0  0  0  0  0  0
    8.6980    2.8290   11.4720 C   0  0  0  0  0  0  0  0  0  0  0  0
    8.1030    1.6000   11.8080 C   0  0  0  0  0  0  0  0  0  0  0  0
    8.0480    1.1660   13.1370 C   0  0  0  0  0  0  0  0  0  0  0  0
    8.6090    1.9950   14.0980 C   0  0  0  0  0  0  0  0  0  0  0  0
    9.1840    3.1960   13.7800 C   0  0  0  0  0  0  0  0  0  0  0  0
    9.6100    3.7930   14.9270 O   0  0  0  0  0  0  0  0  0  0  0  0
    9.5750    2.7760   15.8820 C   0  0  0  0  0  0  0  0  0  0  0  0
    8.6560    1.8160   15.4420 O   0  0  0  0  0  0  0  0  0  0  0  0
    8.7290    3.2660    9.8060 Cl  0  0  0  0  0  0  0  0  0  0  0  0
   10.3820    8.2260   10.7710 H   0  0  0  0  0  0  0  0  0  0  0  0
   10.4740    8.8940    9.1330 H   0  0  0  0  0  0  0  0  0  0  0  0
   11.4610    7.5250    9.5440 H   0  0  0  0  0  0  0  0  0  0  0  0
   11.0480   11.1160    9.7790 H   0  0  0  0  0  0  0  0  0  0  0  0
   12.8310   12.7150   10.3020 H   0  0  0  0  0  0  0  0  0  0  0  0
   15.0000   11.9100   11.2010 H   0  0  0  0  0  0  0  0  0  0  0  0
   15.3270    9.5360   11.6590 H   0  0  0  0  0  0  0  0  0  0  0  0
   14.7180    7.4570   11.1510 H   0  0  0  0  0  0  0  0  0  0  0  0
   14.2250    3.4880   12.6740 H   0  0  0  0  0  0  0  0  0  0  0  0
   11.7790    3.0610   12.8240 H   0  0  0  0  0  0  0  0  0  0  0  0
    9.3960    5.5280   11.5750 H   0  0  0  0  0  0  0  0  0  0  0  0
    7.6790    0.9890   11.0260 H   0  0  0  0  0  0  0  0  0  0  0  0
    7.5820    0.2280   13.4000 H   0  0  0  0  0  0  0  0  0  0  0  0
   10.5680    2.3350   15.9750 H   0  0  0  0  0  0  0  0  0  0  0  0
    9.3330    3.1600   16.8640 H   0  0  0  0  0  0  0  0  0  0  0  0
  1  2  1  0  0  0  0
  1 26  1  0  0  0  0
  1 27  1  0  0  0  0
  1 28  1  0  0  0  0
  2  3  1  0  0  0  0
  2  7  2  0  0  0  0
  3  4  2  0  0  0  0
  3 29  1  0  0  0  0
  4  5  1  0  0  0  0
  4 30  1  0  0  0  0
  5  6  2  0  0  0  0
  5 31  1  0  0  0  0
  6  7  1  0  0  0  0
  6 32  1  0  0  0  0
  7  8  1  0  0  0  0
  8  9  1  0  0  0  0
  8 33  1  0  0  0  0
  9 10  1  0  0  0  0
  9 14  2  0  0  0  0
 10 11  2  0  0  0  0
 11 12  1  0  0  0  0
 11 34  1  0  0  0  0
 12 13  2  0  0  0  0
 12 35  1  0  0  0  0
 13 14  1  0  0  0  0
 13 15  1  0  0  0  0
 15 16  1  0  0  0  0
 15 36  1  0  0  0  0
 16 17  1  0  0  0  0
 16 21  2  0  0  0  0
 17 18  2  0  0  0  0
 17 25  1  0  0  0  0
 18 19  1  0  0  0  0
 18 37  1  0  0  0  0
 19 20  2  0  0  0  0
 19 38  1  0  0  0  0
 20 21  1  0  0  0  0
 20 24  1  0  0  0  0
 21 22  1  0  0  0  0
 22 23  1  0  0  0  0
 23 24  1  0  0  0  0
 23 39  1  0  0  0  0
 23 40  1  0  0  0  0
M  END
>  <paper_pIC50>
4.8551145

$$$$
CHEMBL253957
  MOE2020           3D

 41 44  0  0  0  0  0  0  0  0999 V2000
   15.1960   11.4320   11.5340 C   0  0  0  0  0  0  0  0  0  0  0  0
   14.5680   10.1650   11.3830 O   0  0  0  0  0  0  0  0  0  0  0  0
   13.3270   10.0860   10.7680 C   0  0  0  0  0  0  0  0  0  0  0  0
   12.6680   11.2030   10.2260 C   0  0  0  0  0  0  0  0  0  0  0  0
   11.4280   11.0670    9.6040 C   0  0  0  0  0  0  0  0  0  0  0  0
   10.8390    9.8120    9.4960 C   0  0  0  0  0  0  0  0  0  0  0  0
   11.4780    8.6970   10.0340 C   0  0  0  0  0  0  0  0  0  0  0  0
   12.7050    8.8230   10.7000 C   0  0  0  0  0  0  0  0  0  0  0  0
   13.3720    7.7100   11.2460 N   0  0  0  0  0  0  0  0  0  0  0  0
   12.9250    6.4630   11.6850 C   0  0  0  0  0  0  0  0  0  0  0  0
   13.9000    5.6010   12.0670 N   0  0  0  0  0  0  0  0  0  0  0  0
   13.4950    4.3680   12.4630 C   0  0  0  0  0  0  0  0  0  0  0  0
   12.1510    4.0090   12.5120 C   0  0  0  0  0  0  0  0  0  0  0  0
   11.2190    4.9680   12.1170 C   0  0  0  0  0  0  0  0  0  0  0  0
   11.5950    6.1980   11.7070 N   0  0  0  0  0  0  0  0  0  0  0  0
    9.8560    4.6930   12.0720 N   0  0  0  0  0  0  0  0  0  0  0  0
    9.2200    3.5000   12.4450 C   0  0  0  0  0  0  0  0  0  0  0  0
    8.6480    2.6350   11.4910 C   0  0  0  0  0  0  0  0  0  0  0  0
    8.0410    1.4320   11.8860 C   0  0  0  0  0  0  0  0  0  0  0  0
    8.0000    1.0500   13.2310 C   0  0  0  0  0  0  0  0  0  0  0  0
    8.5900    1.9050   14.1510 C   0  0  0  0  0  0  0  0  0  0  0  0
    9.1770    3.0840   13.7770 C   0  0  0  0  0  0  0  0  0  0  0  0
    9.6160    3.7280   14.8930 O   0  0  0  0  0  0  0  0  0  0  0  0
    9.5750    2.7550   15.8940 C   0  0  0  0  0  0  0  0  0  0  0  0
    8.6460    1.7840   15.5010 O   0  0  0  0  0  0  0  0  0  0  0  0
    8.6610    3.0140    9.8080 Cl  0  0  0  0  0  0  0  0  0  0  0  0
   14.5770   12.1230   12.1080 H   0  0  0  0  0  0  0  0  0  0  0  0
   16.1300   11.3060   12.0800 H   0  0  0  0  0  0  0  0  0  0  0  0
   15.4350   11.8770   10.5670 H   0  0  0  0  0  0  0  0  0  0  0  0
   13.1010   12.1900   10.2770 H   0  0  0  0  0  0  0  0  0  0  0  0
   10.9300   11.9370    9.1990 H   0  0  0  0  0  0  0  0  0  0  0  0
    9.8900    9.6990    8.9920 H   0  0  0  0  0  0  0  0  0  0  0  0
   11.0140    7.7310    9.9080 H   0  0  0  0  0  0  0  0  0  0  0  0
   14.3760    7.8340   11.3060 H   0  0  0  0  0  0  0  0  0  0  0  0
   14.2590    3.6600   12.7420 H   0  0  0  0  0  0  0  0  0  0  0  0
   11.8390    3.0340   12.8430 H   0  0  0  0  0  0  0  0  0  0  0  0
    9.3090    5.3560   11.5240 H   0  0  0  0  0  0  0  0  0  0  0  0
    7.5900    0.8050   11.1340 H   0  0  0  0  0  0  0  0  0  0  0  0
    7.5170    0.1340   13.5370 H   0  0  0  0  0  0  0  0  0  0  0  0
   10.5650    2.3120   16.0020 H   0  0  0  0  0  0  0  0  0  0  0  0
    9.3390    3.1860   16.8580 H   0  0  0  0  0  0  0  0  0  0  0  0
  1  2  1  0  0  0  0
  1 27  1  0  0  0  0
  1 28  1  0  0  0  0
  1 29  1  0  0  0  0
  2  3  1  0  0  0  0
  3  4  1  0  0  0  0
  3  8  2  0  0  0  0
  4  5  2  0  0  0  0
  4 30  1  0  0  0  0
  5  6  1  0  0  0  0
  5 31  1  0  0  0  0
  6  7  2  0  0  0  0
  6 32  1  0  0  0  0
  7  8  1  0  0  0  0
  7 33  1  0  0  0  0
  8  9  1  0  0  0  0
  9 10  1  0  0  0  0
  9 34  1  0  0  0  0
 10 11  1  0  0  0  0
 10 15  2  0  0  0  0
 11 12  2  0  0  0  0
 12 13  1  0  0  0  0
 12 35  1  0  0  0  0
 13 14  2  0  0  0  0
 13 36  1  0  0  0  0
 14 15  1  0  0  0  0
 14 16  1  0  0  0  0
 16 17  1  0  0  0  0
 16 37  1  0  0  0  0
 17 18  1  0  0  0  0
 17 22  2  0  0  0  0
 18 19  2  0  0  0  0
 18 26  1  0  0  0  0
 19 20  1  0  0  0  0
 19 38  1  0  0  0  0
 20 21  2  0  0  0  0
 20 39  1  0  0  0  0
 21 22  1  0  0  0  0
 21 25  1  0  0  0  0
 22 23  1  0  0  0  0
 23 24  1  0  0  0  0
 24 25  1  0  0  0  0
 24 40  1  0  0  0  0
 24 41  1  0  0  0  0
M  END
>  <paper_pIC50>
5.4111681

$$$$
CHEMBL402903
  MOE2020           3D

 41 44  0  0  0  0  0  0  0  0999 V2000
   15.3470   12.3160   10.1570 C   0  0  0  0  0  0  0  0  0  0  0  0
   13.9310   12.4080   10.1550 O   0  0  0  0  0  0  0  0  0  0  0  0
   13.1880   11.2800   10.4280 C   0  0  0  0  0  0  0  0  0  0  0  0
   11.8080   11.4430   10.3900 C   0  0  0  0  0  0  0  0  0  0  0  0
   10.9560   10.3800   10.6670 C   0  0  0  0  0  0  0  0  0  0  0  0
   11.4890    9.1340   10.9790 C   0  0  0  0  0  0  0  0  0  0  0  0
   12.8750    8.9360   11.0180 C   0  0  0  0  0  0  0  0  0  0  0  0
   13.7160   10.0170   10.7410 C   0  0  0  0  0  0  0  0  0  0  0  0
   13.4830    7.7160   11.3480 N   0  0  0  0  0  0  0  0  0  0  0  0
   12.9960    6.4620   11.7260 C   0  0  0  0  0  0  0  0  0  0  0  0
   13.9550    5.5790   12.0980 N   0  0  0  0  0  0  0  0  0  0  0  0
   13.5320    4.3420   12.4620 C   0  0  0  0  0  0  0  0  0  0  0  0
   12.1850    3.9980   12.4910 C   0  0  0  0  0  0  0  0  0  0  0  0
   11.2690    4.9690   12.0940 C   0  0  0  0  0  0  0  0  0  0  0  0
   11.6660    6.2000   11.7010 N   0  0  0  0  0  0  0  0  0  0  0  0
    9.9020    4.7060   12.0420 N   0  0  0  0  0  0  0  0  0  0  0  0
    9.2520    3.5200   12.4180 C   0  0  0  0  0  0  0  0  0  0  0  0
    8.6710    2.6600   11.4640 C   0  0  0  0  0  0  0  0  0  0  0  0
    8.0540    1.4610   11.8570 C   0  0  0  0  0  0  0  0  0  0  0  0
    8.0080    1.0790   13.2020 C   0  0  0  0  0  0  0  0  0  0  0  0
    8.6020    1.9300   14.1230 C   0  0  0  0  0  0  0  0  0  0  0  0
    9.2000    3.1040   13.7510 C   0  0  0  0  0  0  0  0  0  0  0  0
    9.6390    3.7430   14.8700 O   0  0  0  0  0  0  0  0  0  0  0  0
    9.5820    2.7720   15.8730 C   0  0  0  0  0  0  0  0  0  0  0  0
    8.6500    1.8070   15.4740 O   0  0  0  0  0  0  0  0  0  0  0  0
    8.6830    3.0400    9.7830 Cl  0  0  0  0  0  0  0  0  0  0  0  0
   15.7780   13.2940    9.9430 H   0  0  0  0  0  0  0  0  0  0  0  0
   15.7290   11.9940   11.1270 H   0  0  0  0  0  0  0  0  0  0  0  0
   15.6920   11.6320    9.3810 H   0  0  0  0  0  0  0  0  0  0  0  0
   11.3950   12.4140   10.1580 H   0  0  0  0  0  0  0  0  0  0  0  0
    9.8870   10.5280   10.6470 H   0  0  0  0  0  0  0  0  0  0  0  0
   10.7960    8.3410   11.1960 H   0  0  0  0  0  0  0  0  0  0  0  0
   14.7840    9.8680   10.7790 H   0  0  0  0  0  0  0  0  0  0  0  0
   14.4940    7.7300   11.3190 H   0  0  0  0  0  0  0  0  0  0  0  0
   14.2850    3.6210   12.7350 H   0  0  0  0  0  0  0  0  0  0  0  0
   11.8590    3.0230   12.8080 H   0  0  0  0  0  0  0  0  0  0  0  0
    9.3610    5.3690   11.4890 H   0  0  0  0  0  0  0  0  0  0  0  0
    7.5980    0.8380   11.1050 H   0  0  0  0  0  0  0  0  0  0  0  0
    7.5180    0.1660   13.5070 H   0  0  0  0  0  0  0  0  0  0  0  0
   10.5670    2.3220   15.9910 H   0  0  0  0  0  0  0  0  0  0  0  0
    9.3370    3.2030   16.8350 H   0  0  0  0  0  0  0  0  0  0  0  0
  1  2  1  0  0  0  0
  1 27  1  0  0  0  0
  1 28  1  0  0  0  0
  1 29  1  0  0  0  0
  2  3  1  0  0  0  0
  3  4  1  0  0  0  0
  3  8  2  0  0  0  0
  4  5  2  0  0  0  0
  4 30  1  0  0  0  0
  5  6  1  0  0  0  0
  5 31  1  0  0  0  0
  6  7  2  0  0  0  0
  6 32  1  0  0  0  0
  7  8  1  0  0  0  0
  7  9  1  0  0  0  0
  8 33  1  0  0  0  0
  9 10  1  0  0  0  0
  9 34  1  0  0  0  0
 10 11  1  0  0  0  0
 10 15  2  0  0  0  0
 11 12  2  0  0  0  0
 12 13  1  0  0  0  0
 12 35  1  0  0  0  0
 13 14  2  0  0  0  0
 13 36  1  0  0  0  0
 14 15  1  0  0  0  0
 14 16  1  0  0  0  0
 16 17  1  0  0  0  0
 16 37  1  0  0  0  0
 17 18  1  0  0  0  0
 17 22  2  0  0  0  0
 18 19  2  0  0  0  0
 18 26  1  0  0  0  0
 19 20  1  0  0  0  0
 19 38  1  0  0  0  0
 20 21  2  0  0  0  0
 20 39  1  0  0  0  0
 21 22  1  0  0  0  0
 21 25  1  0  0  0  0
 22 23  1  0  0  0  0
 23 24  1  0  0  0  0
 24 25  1  0  0  0  0
 24 40  1  0  0  0  0
 24 41  1  0  0  0  0
M  END
>  <paper_pIC50>
6.19382

$$$$
CHEMBL460600
  MOE2020           3D

 45 48  0  0  0  0  0  0  0  0999 V2000
    8.0150    1.1280   13.1640 C   0  0  0  0  0  0  0  0  0  0  0  0
    8.0670    1.5360   11.8270 C   0  0  0  0  0  0  0  0  0  0  0  0
    8.6790    2.7470   11.4620 C   0  0  0  0  0  0  0  0  0  0  0  0
    9.2500    3.5930   12.4370 C   0  0  0  0  0  0  0  0  0  0  0  0
    9.1870    3.1510   13.7610 C   0  0  0  0  0  0  0  0  0  0  0  0
    8.5950    1.9650   14.1060 C   0  0  0  0  0  0  0  0  0  0  0  0
    8.6440    1.8120   15.4530 O   0  0  0  0  0  0  0  0  0  0  0  0
    9.5740    2.7720   15.8730 C   0  0  0  0  0  0  0  0  0  0  0  0
    9.6250    3.7660   14.8930 O   0  0  0  0  0  0  0  0  0  0  0  0
    9.9260    4.7750   12.0920 N   0  0  0  0  0  0  0  0  0  0  0  0
   11.3050    4.9800   12.1400 C   0  0  0  0  0  0  0  0  0  0  0  0
   12.1700    3.9510   12.5040 C   0  0  0  0  0  0  0  0  0  0  0  0
   13.5320    4.2120   12.4570 C   0  0  0  0  0  0  0  0  0  0  0  0
   14.0220    5.4250   12.1030 N   0  0  0  0  0  0  0  0  0  0  0  0
   13.1170    6.3690   11.7560 C   0  0  0  0  0  0  0  0  0  0  0  0
   11.7690    6.1960   11.7690 N   0  0  0  0  0  0  0  0  0  0  0  0
   13.6910    7.5840   11.3700 N   0  0  0  0  0  0  0  0  0  0  0  0
   13.1600    8.8300   11.0070 C   0  0  0  0  0  0  0  0  0  0  0  0
   11.8220    9.0090   10.6520 C   0  0  0  0  0  0  0  0  0  0  0  0
   11.3000   10.2760   10.3680 C   0  0  0  0  0  0  0  0  0  0  0  0
   12.1680   11.3780   10.4270 C   0  0  0  0  0  0  0  0  0  0  0  0
   13.5250   11.2320   10.7520 C   0  0  0  0  0  0  0  0  0  0  0  0
   14.0150    9.9370   11.0140 C   0  0  0  0  0  0  0  0  0  0  0  0
   14.3840   12.4710   10.8860 C   0  0  0  0  0  0  0  0  0  0  0  0
   13.8960   13.5940   10.9400 O   0  0  0  0  0  0  0  0  0  0  0  0
   15.6930   12.3390   10.9930 N   0  0  0  0  0  0  0  0  0  0  0  0
    9.8350   10.4130   10.0190 C   0  0  0  0  0  0  0  0  0  0  0  0
    9.0870    9.4440    9.9280 O   0  0  0  0  0  0  0  0  0  0  0  0
    9.3550   11.6290    9.8200 N   0  0  0  0  0  0  0  0  0  0  0  0
    8.7080    3.1540    9.7880 Cl  0  0  0  0  0  0  0  0  0  0  0  0
    7.5330    0.2040   13.4480 H   0  0  0  0  0  0  0  0  0  0  0  0
    7.6250    0.9200   11.0590 H   0  0  0  0  0  0  0  0  0  0  0  0
    9.3310    3.1810   16.8450 H   0  0  0  0  0  0  0  0  0  0  0  0
   10.5610    2.3230   15.9790 H   0  0  0  0  0  0  0  0  0  0  0  0
    9.4040    5.4510   11.5340 H   0  0  0  0  0  0  0  0  0  0  0  0
   11.7940    2.9880   12.8040 H   0  0  0  0  0  0  0  0  0  0  0  0
   14.2440    3.4380   12.6890 H   0  0  0  0  0  0  0  0  0  0  0  0
   14.7020    7.5390   11.3250 H   0  0  0  0  0  0  0  0  0  0  0  0
   11.1610    8.1600   10.5900 H   0  0  0  0  0  0  0  0  0  0  0  0
   11.7870   12.3740   10.2350 H   0  0  0  0  0  0  0  0  0  0  0  0
   15.0480    9.7850   11.2940 H   0  0  0  0  0  0  0  0  0  0  0  0
   16.1900   11.5020   10.7190 H   0  0  0  0  0  0  0  0  0  0  0  0
   16.2170   13.1860   11.1230 H   0  0  0  0  0  0  0  0  0  0  0  0
    9.7870   12.3960   10.3200 H   0  0  0  0  0  0  0  0  0  0  0  0
    8.4000   11.6920    9.5200 H   0  0  0  0  0  0  0  0  0  0  0  0
  1  2  1  0  0  0  0
  1  6  2  0  0  0  0
  1 31  1  0  0  0  0
  2  3  2  0  0  0  0
  2 32  1  0  0  0  0
  3  4  1  0  0  0  0
  3 30  1  0  0  0  0
  4  5  2  0  0  0  0
  4 10  1  0  0  0  0
  5  6  1  0  0  0  0
  5  9  1  0  0  0  0
  6  7  1  0  0  0  0
  7  8  1  0  0  0  0
  8  9  1  0  0  0  0
  8 33  1  0  0  0  0
  8 34  1  0  0  0  0
 10 11  1  0  0  0  0
 10 35  1  0  0  0  0
 11 12  1  0  0  0  0
 11 16  2  0  0  0  0
 12 13  2  0  0  0  0
 12 36  1  0  0  0  0
 13 14  1  0  0  0  0
 13 37  1  0  0  0  0
 14 15  2  0  0  0  0
 15 16  1  0  0  0  0
 15 17  1  0  0  0  0
 17 18  1  0  0  0  0
 17 38  1  0  0  0  0
 18 19  1  0  0  0  0
 18 23  2  0  0  0  0
 19 20  2  0  0  0  0
 19 39  1  0  0  0  0
 20 21  1  0  0  0  0
 20 27  1  0  0  0  0
 21 22  2  0  0  0  0
 21 40  1  0  0  0  0
 22 23  1  0  0  0  0
 22 24  1  0  0  0  0
 23 41  1  0  0  0  0
 24 25  2  0  0  0  0
 24 26  1  0  0  0  0
 26 42  1  0  0  0  0
 26 43  1  0  0  0  0
 27 28  2  0  0  0  0
 27 29  1  0  0  0  0
 29 44  1  0  0  0  0
 29 45  1  0  0  0  0
M  END
>  <paper_pIC50>
7.1135092

$$$$
CHEMBL517720
  MOE2020           3D

 54 58  0  0  0  0  0  0  0  0999 V2000
    8.0190    1.0960   13.1880 C   0  0  0  0  0  0  0  0  0  0  0  0
    8.0670    1.4890   11.8460 C   0  0  0  0  0  0  0  0  0  0  0  0
    8.6820    2.6940   11.4650 C   0  0  0  0  0  0  0  0  0  0  0  0
    9.2580    3.5480   12.4280 C   0  0  0  0  0  0  0  0  0  0  0  0
    9.2040    3.1200   13.7570 C   0  0  0  0  0  0  0  0  0  0  0  0
    8.6070    1.9420   14.1180 C   0  0  0  0  0  0  0  0  0  0  0  0
    8.6530    1.8070   15.4670 O   0  0  0  0  0  0  0  0  0  0  0  0
    9.5820    2.7710   15.8760 C   0  0  0  0  0  0  0  0  0  0  0  0
    9.6380    3.7510   14.8820 O   0  0  0  0  0  0  0  0  0  0  0  0
    9.9100    4.7380   12.0660 N   0  0  0  0  0  0  0  0  0  0  0  0
   11.2790    4.9940   12.1120 C   0  0  0  0  0  0  0  0  0  0  0  0
   12.1910    4.0150   12.5000 C   0  0  0  0  0  0  0  0  0  0  0  0
   13.5400    4.3480   12.4570 C   0  0  0  0  0  0  0  0  0  0  0  0
   13.9700    5.5780   12.0790 N   0  0  0  0  0  0  0  0  0  0  0  0
   13.0160    6.4670   11.7090 C   0  0  0  0  0  0  0  0  0  0  0  0
   11.6820    6.2220   11.7190 N   0  0  0  0  0  0  0  0  0  0  0  0
   13.5120    7.7090   11.3010 N   0  0  0  0  0  0  0  0  0  0  0  0
   12.9000    8.9140   10.9180 C   0  0  0  0  0  0  0  0  0  0  0  0
   11.5420    9.0290   10.6070 C   0  0  0  0  0  0  0  0  0  0  0  0
   10.9630   10.2660   10.2930 C   0  0  0  0  0  0  0  0  0  0  0  0
   11.7900   11.3970   10.2860 C   0  0  0  0  0  0  0  0  0  0  0  0
   13.1600   11.3100   10.5470 C   0  0  0  0  0  0  0  0  0  0  0  0
   13.7020   10.0540   10.8490 C   0  0  0  0  0  0  0  0  0  0  0  0
   13.9540   12.4520   10.5500 N   0  0  0  0  0  0  0  0  0  0  0  0
   15.3180   12.4660   10.0080 C   0  0  0  0  0  0  0  0  0  0  0  0
   16.2520   13.3540   10.8740 C   0  0  0  0  0  0  0  0  0  0  0  0
   15.6190   14.5260   11.4040 O   0  0  0  0  0  0  0  0  0  0  0  0
   14.4900   14.9560   10.6500 C   0  0  0  0  0  0  0  0  0  0  0  0
   13.4200   13.8330   10.6160 C   0  0  0  0  0  0  0  0  0  0  0  0
    9.4890   10.3480    9.9730 C   0  0  0  0  0  0  0  0  0  0  0  0
    8.7560    9.3690   10.0140 O   0  0  0  0  0  0  0  0  0  0  0  0
    8.9890   11.5290    9.6460 N   0  0  0  0  0  0  0  0  0  0  0  0
    8.6960    3.0880    9.7870 Cl  0  0  0  0  0  0  0  0  0  0  0  0
    7.5320    0.1790   13.4840 H   0  0  0  0  0  0  0  0  0  0  0  0
    7.6170    0.8700   11.0870 H   0  0  0  0  0  0  0  0  0  0  0  0
    9.3360    3.1940   16.8420 H   0  0  0  0  0  0  0  0  0  0  0  0
   10.5680    2.3220   15.9920 H   0  0  0  0  0  0  0  0  0  0  0  0
    9.3680    5.4040   11.5160 H   0  0  0  0  0  0  0  0  0  0  0  0
   11.8610    3.0410   12.8190 H   0  0  0  0  0  0  0  0  0  0  0  0
   14.2900    3.6210   12.7250 H   0  0  0  0  0  0  0  0  0  0  0  0
   14.5240    7.7240   11.2850 H   0  0  0  0  0  0  0  0  0  0  0  0
   10.9120    8.1560   10.6000 H   0  0  0  0  0  0  0  0  0  0  0  0
   11.3720   12.3660   10.0650 H   0  0  0  0  0  0  0  0  0  0  0  0
   14.7480    9.9690   11.0950 H   0  0  0  0  0  0  0  0  0  0  0  0
   15.7230   11.4600    9.9610 H   0  0  0  0  0  0  0  0  0  0  0  0
   15.3030   12.8150    8.9740 H   0  0  0  0  0  0  0  0  0  0  0  0
   16.6170   12.7690   11.7180 H   0  0  0  0  0  0  0  0  0  0  0  0
   17.1340   13.6400   10.3000 H   0  0  0  0  0  0  0  0  0  0  0  0
   14.0760   15.8580   11.1020 H   0  0  0  0  0  0  0  0  0  0  0  0
   14.7970   15.2320    9.6390 H   0  0  0  0  0  0  0  0  0  0  0  0
   12.7780   14.0100    9.7520 H   0  0  0  0  0  0  0  0  0  0  0  0
   12.7830   13.9300   11.4950 H   0  0  0  0  0  0  0  0  0  0  0  0
    9.4580   12.3600    9.9700 H   0  0  0  0  0  0  0  0  0  0  0  0
    8.0250   11.5550    9.3680 H   0  0  0  0  0  0  0  0  0  0  0  0
  1  2  1  0  0  0  0
  1  6  2  0  0  0  0
  1 34  1  0  0  0  0
  2  3  2  0  0  0  0
  2 35  1  0  0  0  0
  3  4  1  0  0  0  0
  3 33  1  0  0  0  0
  4  5  2  0  0  0  0
  4 10  1  0  0  0  0
  5  6  1  0  0  0  0
  5  9  1  0  0  0  0
  6  7  1  0  0  0  0
  7  8  1  0  0  0  0
  8  9  1  0  0  0  0
  8 36  1  0  0  0  0
  8 37  1  0  0  0  0
 10 11  1  0  0  0  0
 10 38  1  0  0  0  0
 11 12  1  0  0  0  0
 11 16  2  0  0  0  0
 12 13  2  0  0  0  0
 12 39  1  0  0  0  0
 13 14  1  0  0  0  0
 13 40  1  0  0  0  0
 14 15  2  0  0  0  0
 15 16  1  0  0  0  0
 15 17  1  0  0  0  0
 17 18  1  0  0  0  0
 17 41  1  0  0  0  0
 18 19  1  0  0  0  0
 18 23  2  0  0  0  0
 19 20  2  0  0  0  0
 19 42  1  0  0  0  0
 20 21  1  0  0  0  0
 20 30  1  0  0  0  0
 21 22  2  0  0  0  0
 21 43  1  0  0  0  0
 22 23  1  0  0  0  0
 22 24  1  0  0  0  0
 23 44  1  0  0  0  0
 24 25  1  0  0  0  0
 24 29  1  0  0  0  0
 25 26  1  0  0  0  0
 25 45  1  0  0  0  0
 25 46  1  0  0  0  0
 26 27  1  0  0  0  0
 26 47  1  0  0  0  0
 26 48  1  0  0  0  0
 27 28  1  0  0  0  0
 28 29  1  0  0  0  0
 28 49  1  0  0  0  0
 28 50  1  0  0  0  0
 29 51  1  0  0  0  0
 29 52  1  0  0  0  0
 30 31  2  0  0  0  0
 30 32  1  0  0  0  0
 32 53  1  0  0  0  0
 32 54  1  0  0  0  0
M  END
>  <paper_pIC50>
7.8860564

$$$$
CHEMBL523744
  MOE2020           3D

 58 62  0  0  0  0  0  0  0  0999 V2000
    9.7420   11.3920    7.8610 C   0  0  0  0  0  0  0  0  0  0  0  0
    8.9650   10.3430    9.2000 S   0  0  0  0  0  0  0  0  0  0  0  0
    7.6010   10.8200    9.4440 O   0  0  0  0  0  0  0  0  0  0  0  0
    9.2470    8.9330    8.9260 O   0  0  0  0  0  0  0  0  0  0  0  0
    9.9140   10.8130   10.6000 N   0  0  0  0  0  0  0  0  0  0  0  0
   11.2680   10.5140   10.6720 C   0  0  0  0  0  0  0  0  0  0  0  0
   11.7200    9.2170   10.8940 C   0  0  0  0  0  0  0  0  0  0  0  0
   13.0880    8.9550   11.0100 C   0  0  0  0  0  0  0  0  0  0  0  0
   13.9930   10.0110   10.8560 C   0  0  0  0  0  0  0  0  0  0  0  0
   13.5430   11.3190   10.6520 C   0  0  0  0  0  0  0  0  0  0  0  0
   12.1750   11.5580   10.5710 C   0  0  0  0  0  0  0  0  0  0  0  0
   14.4390   12.3660   10.5240 N   0  0  0  0  0  0  0  0  0  0  0  0
   15.3570   12.4070    9.3740 C   0  0  0  0  0  0  0  0  0  0  0  0
   16.4090   13.5350    9.4790 C   0  0  0  0  0  0  0  0  0  0  0  0
   15.8200   14.8330    9.6090 O   0  0  0  0  0  0  0  0  0  0  0  0
   14.5220   14.8760   10.2090 C   0  0  0  0  0  0  0  0  0  0  0  0
   14.2430   13.6860   11.1590 C   0  0  0  0  0  0  0  0  0  0  0  0
   13.6170    7.6910   11.3070 N   0  0  0  0  0  0  0  0  0  0  0  0
   13.0680    6.4680   11.7030 C   0  0  0  0  0  0  0  0  0  0  0  0
   13.9960    5.5560   12.0780 N   0  0  0  0  0  0  0  0  0  0  0  0
   13.5400    4.3360   12.4520 C   0  0  0  0  0  0  0  0  0  0  0  0
   12.1840    4.0350   12.4870 C   0  0  0  0  0  0  0  0  0  0  0  0
   11.2950    5.0340   12.0950 C   0  0  0  0  0  0  0  0  0  0  0  0
   11.7260    6.2560   11.6970 N   0  0  0  0  0  0  0  0  0  0  0  0
    9.9220    4.7930   12.0550 N   0  0  0  0  0  0  0  0  0  0  0  0
    9.2630    3.6030   12.4110 C   0  0  0  0  0  0  0  0  0  0  0  0
    8.6930    2.7520   11.4410 C   0  0  0  0  0  0  0  0  0  0  0  0
    8.0840    1.5400   11.8100 C   0  0  0  0  0  0  0  0  0  0  0  0
    8.0340    1.1370   13.1490 C   0  0  0  0  0  0  0  0  0  0  0  0
    8.6140    1.9780   14.0860 C   0  0  0  0  0  0  0  0  0  0  0  0
    9.2050    3.1640   13.7370 C   0  0  0  0  0  0  0  0  0  0  0  0
    9.6390    3.7830   14.8700 O   0  0  0  0  0  0  0  0  0  0  0  0
    9.5840    2.7930   15.8550 C   0  0  0  0  0  0  0  0  0  0  0  0
    8.6590    1.8300   15.4340 O   0  0  0  0  0  0  0  0  0  0  0  0
    8.7110    3.1540    9.7670 Cl  0  0  0  0  0  0  0  0  0  0  0  0
    9.2300   11.1860    6.9240 H   0  0  0  0  0  0  0  0  0  0  0  0
    9.6350   12.4400    8.1320 H   0  0  0  0  0  0  0  0  0  0  0  0
   10.7940   11.1250    7.7830 H   0  0  0  0  0  0  0  0  0  0  0  0
    9.6760   11.7320   10.9540 H   0  0  0  0  0  0  0  0  0  0  0  0
   10.9860    8.4350   10.9910 H   0  0  0  0  0  0  0  0  0  0  0  0
   15.0550    9.8340   10.9360 H   0  0  0  0  0  0  0  0  0  0  0  0
   11.8120   12.5600   10.4060 H   0  0  0  0  0  0  0  0  0  0  0  0
   15.8650   11.4520    9.2870 H   0  0  0  0  0  0  0  0  0  0  0  0
   14.7820   12.5290    8.4550 H   0  0  0  0  0  0  0  0  0  0  0  0
   17.0670   13.3600   10.3320 H   0  0  0  0  0  0  0  0  0  0  0  0
   17.0480   13.5250    8.5950 H   0  0  0  0  0  0  0  0  0  0  0  0
   14.4250   15.8130   10.7570 H   0  0  0  0  0  0  0  0  0  0  0  0
   13.7700   14.9060    9.4180 H   0  0  0  0  0  0  0  0  0  0  0  0
   13.2330   13.7940   11.5530 H   0  0  0  0  0  0  0  0  0  0  0  0
   14.9060   13.7500   12.0240 H   0  0  0  0  0  0  0  0  0  0  0  0
   14.6280    7.6480   11.2720 H   0  0  0  0  0  0  0  0  0  0  0  0
   14.2710    3.5920   12.7220 H   0  0  0  0  0  0  0  0  0  0  0  0
   11.8360    3.0660   12.8050 H   0  0  0  0  0  0  0  0  0  0  0  0
    9.3880    5.4550   11.4900 H   0  0  0  0  0  0  0  0  0  0  0  0
    7.6410    0.9220   11.0450 H   0  0  0  0  0  0  0  0  0  0  0  0
    7.5530    0.2140   13.4360 H   0  0  0  0  0  0  0  0  0  0  0  0
   10.5700    2.3430   15.9680 H   0  0  0  0  0  0  0  0  0  0  0  0
    9.3340    3.2020   16.8250 H   0  0  0  0  0  0  0  0  0  0  0  0
  1  2  1  0  0  0  0
  1 36  1  0  0  0  0
  1 37  1  0  0  0  0
  1 38  1  0  0  0  0
  2  3  2  0  0  0  0
  2  4  2  0  0  0  0
  2  5  1  0  0  0  0
  5  6  1  0  0  0  0
  5 39  1  0  0  0  0
  6  7  1  0  0  0  0
  6 11  2  0  0  0  0
  7  8  2  0  0  0  0
  7 40  1  0  0  0  0
  8  9  1  0  0  0  0
  8 18  1  0  0  0  0
  9 10  2  0  0  0  0
  9 41  1  0  0  0  0
 10 11  1  0  0  0  0
 10 12  1  0  0  0  0
 11 42  1  0  0  0  0
 12 13  1  0  0  0  0
 12 17  1  0  0  0  0
 13 14  1  0  0  0  0
 13 43  1  0  0  0  0
 13 44  1  0  0  0  0
 14 15  1  0  0  0  0
 14 45  1  0  0  0  0
 14 46  1  0  0  0  0
 15 16  1  0  0  0  0
 16 17  1  0  0  0  0
 16 47  1  0  0  0  0
 16 48  1  0  0  0  0
 17 49  1  0  0  0  0
 17 50  1  0  0  0  0
 18 19  1  0  0  0  0
 18 51  1  0  0  0  0
 19 20  1  0  0  0  0
 19 24  2  0  0  0  0
 20 21  2  0  0  0  0
 21 22  1  0  0  0  0
 21 52  1  0  0  0  0
 22 23  2  0  0  0  0
 22 53  1  0  0  0  0
 23 24  1  0  0  0  0
 23 25  1  0  0  0  0
 25 26  1  0  0  0  0
 25 54  1  0  0  0  0
 26 27  1  0  0  0  0
 26 31  2  0  0  0  0
 27 28  2  0  0  0  0
 27 35  1  0  0  0  0
 28 29  1  0  0  0  0
 28 55  1  0  0  0  0
 29 30  2  0  0  0  0
 29 56  1  0  0  0  0
 30 31  1  0  0  0  0
 30 34  1  0  0  0  0
 31 32  1  0  0  0  0
 32 33  1  0  0  0  0
 33 34  1  0  0  0  0
 33 57  1  0  0  0  0
 33 58  1  0  0  0  0
M  END
>  <paper_pIC50>
8.6989698

$$$$
CHEMBL523088
  MOE2020           3D

 51 54  0  0  0  0  0  0  0  0999 V2000
   15.7100   12.9830    9.5470 C   0  0  0  0  0  0  0  0  0  0  0  0
   15.0000   12.6540   11.2500 S   0  0  0  0  0  0  0  0  0  0  0  0
   16.0530   12.1360   12.1290 O   0  0  0  0  0  0  0  0  0  0  0  0
   14.2170   13.8270   11.6550 O   0  0  0  0  0  0  0  0  0  0  0  0
   13.8500   11.3220   10.9500 C   0  0  0  0  0  0  0  0  0  0  0  0
   14.2310    9.9880   11.1240 C   0  0  0  0  0  0  0  0  0  0  0  0
   13.2850    8.9610   11.0250 C   0  0  0  0  0  0  0  0  0  0  0  0
   11.9740    9.2740   10.6490 C   0  0  0  0  0  0  0  0  0  0  0  0
   11.6010   10.6070   10.4180 C   0  0  0  0  0  0  0  0  0  0  0  0
   12.5370   11.6220   10.5940 C   0  0  0  0  0  0  0  0  0  0  0  0
   10.3160   10.9990   10.0280 N   0  0  0  0  0  0  0  0  0  0  0  0
    9.0420    9.8780    9.6010 S   0  0  0  0  0  0  0  0  0  0  0  0
    9.5680    9.0020    8.5510 O   0  0  0  0  0  0  0  0  0  0  0  0
    8.5450    9.3300   10.8640 O   0  0  0  0  0  0  0  0  0  0  0  0
    7.7640   11.0260    8.8700 C   0  0  0  0  0  0  0  0  0  0  0  0
   13.7230    7.6660   11.3260 N   0  0  0  0  0  0  0  0  0  0  0  0
   13.1130    6.4690   11.7060 C   0  0  0  0  0  0  0  0  0  0  0  0
   14.0120    5.5270   12.0750 N   0  0  0  0  0  0  0  0  0  0  0  0
   13.5220    4.3210   12.4440 C   0  0  0  0  0  0  0  0  0  0  0  0
   12.1610    4.0620   12.4800 C   0  0  0  0  0  0  0  0  0  0  0  0
   11.2970    5.0900   12.0980 C   0  0  0  0  0  0  0  0  0  0  0  0
   11.7610    6.3080   11.7050 N   0  0  0  0  0  0  0  0  0  0  0  0
    9.9190    4.8680   12.0660 N   0  0  0  0  0  0  0  0  0  0  0  0
    9.2560    3.6730   12.4080 C   0  0  0  0  0  0  0  0  0  0  0  0
    8.6980    2.8260   11.4270 C   0  0  0  0  0  0  0  0  0  0  0  0
    8.1010    1.6030   11.7780 C   0  0  0  0  0  0  0  0  0  0  0  0
    8.0500    1.1830   13.1100 C   0  0  0  0  0  0  0  0  0  0  0  0
    8.6180    2.0190   14.0600 C   0  0  0  0  0  0  0  0  0  0  0  0
    9.1970    3.2160   13.7290 C   0  0  0  0  0  0  0  0  0  0  0  0
    9.6280    3.8190   14.8710 O   0  0  0  0  0  0  0  0  0  0  0  0
    9.5830    2.8120   15.8400 C   0  0  0  0  0  0  0  0  0  0  0  0
    8.6640    1.8510   15.4060 O   0  0  0  0  0  0  0  0  0  0  0  0
    8.7230    3.2440    9.7570 Cl  0  0  0  0  0  0  0  0  0  0  0  0
   16.5220   13.7000    9.6440 H   0  0  0  0  0  0  0  0  0  0  0  0
   16.0870   12.0470    9.1420 H   0  0  0  0  0  0  0  0  0  0  0  0
   14.9240   13.3760    8.9060 H   0  0  0  0  0  0  0  0  0  0  0  0
   15.2490    9.7590   11.4090 H   0  0  0  0  0  0  0  0  0  0  0  0
   11.2500    8.4840   10.5420 H   0  0  0  0  0  0  0  0  0  0  0  0
   12.2350   12.6520   10.4610 H   0  0  0  0  0  0  0  0  0  0  0  0
   10.0510   11.9560   10.2170 H   0  0  0  0  0  0  0  0  0  0  0  0
    6.8710   10.4450    8.6410 H   0  0  0  0  0  0  0  0  0  0  0  0
    7.5360   11.8100    9.5850 H   0  0  0  0  0  0  0  0  0  0  0  0
    8.1730   11.4560    7.9580 H   0  0  0  0  0  0  0  0  0  0  0  0
   14.7320    7.5670   11.2880 H   0  0  0  0  0  0  0  0  0  0  0  0
   14.2320    3.5530   12.7080 H   0  0  0  0  0  0  0  0  0  0  0  0
   11.7910    3.0990   12.7910 H   0  0  0  0  0  0  0  0  0  0  0  0
    9.3860    5.5310   11.5020 H   0  0  0  0  0  0  0  0  0  0  0  0
    7.6710    0.9860   11.0030 H   0  0  0  0  0  0  0  0  0  0  0  0
    7.5810    0.2500   13.3850 H   0  0  0  0  0  0  0  0  0  0  0  0
   10.5720    2.3650   15.9430 H   0  0  0  0  0  0  0  0  0  0  0  0
    9.3330    3.2020   16.8190 H   0  0  0  0  0  0  0  0  0  0  0  0
  1  2  1  0  0  0  0
  1 34  1  0  0  0  0
  1 35  1  0  0  0  0
  1 36  1  0  0  0  0
  2  3  2  0  0  0  0
  2  4  2  0  0  0  0
  2  5  1  0  0  0  0
  5  6  1  0  0  0  0
  5 10  2  0  0  0  0
  6  7  2  0  0  0  0
  6 37  1  0  0  0  0
  7  8  1  0  0  0  0
  7 16  1  0  0  0  0
  8  9  2  0  0  0  0
  8 38  1  0  0  0  0
  9 10  1  0  0  0  0
  9 11  1  0  0  0  0
 10 39  1  0  0  0  0
 11 12  1  0  0  0  0
 11 40  1  0  0  0  0
 12 13  2  0  0  0  0
 12 14  2  0  0  0  0
 12 15  1  0  0  0  0
 15 41  1  0  0  0  0
 15 42  1  0  0  0  0
 15 43  1  0  0  0  0
 16 17  1  0  0  0  0
 16 44  1  0  0  0  0
 17 18  1  0  0  0  0
 17 22  2  0  0  0  0
 18 19  2  0  0  0  0
 19 20  1  0  0  0  0
 19 45  1  0  0  0  0
 20 21  2  0  0  0  0
 20 46  1  0  0  0  0
 21 22  1  0  0  0  0
 21 23  1  0  0  0  0
 23 24  1  0  0  0  0
 23 47  1  0  0  0  0
 24 25  1  0  0  0  0
 24 29  2  0  0  0  0
 25 26  2  0  0  0  0
 25 33  1  0  0  0  0
 26 27  1  0  0  0  0
 26 48  1  0  0  0  0
 27 28  2  0  0  0  0
 27 49  1  0  0  0  0
 28 29  1  0  0  0  0
 28 32  1  0  0  0  0
 29 30  1  0  0  0  0
 30 31  1  0  0  0  0
 31 32  1  0  0  0  0
 31 50  1  0  0  0  0
 31 51  1  0  0  0  0
M  END
>  <paper_pIC50>
7.9208188

$$$$
CHEMBL468970
  MOE2020           3D

 63 68  0  0  0  0  0  0  0  0999 V2000
    7.9840    1.0970   13.1840 C   0  0  0  0  0  0  0  0  0  0  0  0
    8.0280    1.5050   11.8450 C   0  0  0  0  0  0  0  0  0  0  0  0
    8.6280    2.7210   11.4770 C   0  0  0  0  0  0  0  0  0  0  0  0
    9.1860    3.5750   12.4510 C   0  0  0  0  0  0  0  0  0  0  0  0
    9.1320    3.1350   13.7750 C   0  0  0  0  0  0  0  0  0  0  0  0
    8.5580    1.9420   14.1230 C   0  0  0  0  0  0  0  0  0  0  0  0
    8.6250    1.7890   15.4700 O   0  0  0  0  0  0  0  0  0  0  0  0
    9.5520    2.7560   15.8790 C   0  0  0  0  0  0  0  0  0  0  0  0
    9.5770    3.7530   14.9030 O   0  0  0  0  0  0  0  0  0  0  0  0
    9.8650    4.7540   12.1050 N   0  0  0  0  0  0  0  0  0  0  0  0
   11.2460    4.9340   12.1530 C   0  0  0  0  0  0  0  0  0  0  0  0
   12.0880    3.8820   12.5090 C   0  0  0  0  0  0  0  0  0  0  0  0
   13.4570    4.1070   12.4610 C   0  0  0  0  0  0  0  0  0  0  0  0
   13.9740    5.3110   12.1220 N   0  0  0  0  0  0  0  0  0  0  0  0
   13.0870    6.2760   11.7880 C   0  0  0  0  0  0  0  0  0  0  0  0
   11.7350    6.1440   11.7920 N   0  0  0  0  0  0  0  0  0  0  0  0
   13.6860    7.4800   11.4320 N   0  0  0  0  0  0  0  0  0  0  0  0
   13.1850    8.6850   10.9400 C   0  0  0  0  0  0  0  0  0  0  0  0
   11.9550    8.7990   10.2980 C   0  0  0  0  0  0  0  0  0  0  0  0
   11.5460   10.0200    9.7740 C   0  0  0  0  0  0  0  0  0  0  0  0
   12.3510   11.1450    9.9610 C   0  0  0  0  0  0  0  0  0  0  0  0
   13.5870   11.0680   10.6200 C   0  0  0  0  0  0  0  0  0  0  0  0
   14.0060    9.8010   11.0480 C   0  0  0  0  0  0  0  0  0  0  0  0
   14.3810   12.2010   10.8370 N   0  0  0  0  0  0  0  0  0  0  0  0
   15.3500   12.2350   11.9590 C   0  0  0  0  0  0  0  0  0  0  0  0
   16.3390   13.4180   11.9420 C   0  0  0  0  0  0  0  0  0  0  0  0
   15.6280   14.6430   11.8550 O   0  0  0  0  0  0  0  0  0  0  0  0
   14.8890   14.7010   10.6440 C   0  0  0  0  0  0  0  0  0  0  0  0
   13.8480   13.5620   10.5950 C   0  0  0  0  0  0  0  0  0  0  0  0
   10.3490   10.0770    9.0820 N   0  0  0  0  0  0  0  0  0  0  0  0
    9.1330   10.2450    9.8910 C   0  0  0  0  0  0  0  0  0  0  0  0
    7.8400    9.9660    9.0890 C   0  0  0  0  0  0  0  0  0  0  0  0
    7.7940   10.8190    7.9490 O   0  0  0  0  0  0  0  0  0  0  0  0
    8.9170   10.6160    7.0960 C   0  0  0  0  0  0  0  0  0  0  0  0
   10.2190   10.9140    7.8740 C   0  0  0  0  0  0  0  0  0  0  0  0
    8.6660    3.1220    9.8010 Cl  0  0  0  0  0  0  0  0  0  0  0  0
    7.5150    0.1680   13.4690 H   0  0  0  0  0  0  0  0  0  0  0  0
    7.5940    0.8830   11.0780 H   0  0  0  0  0  0  0  0  0  0  0  0
    9.3250    3.1610   16.8560 H   0  0  0  0  0  0  0  0  0  0  0  0
   10.5460    2.3180   15.9670 H   0  0  0  0  0  0  0  0  0  0  0  0
    9.3520    5.4290   11.5390 H   0  0  0  0  0  0  0  0  0  0  0  0
   11.6910    2.9270   12.8020 H   0  0  0  0  0  0  0  0  0  0  0  0
   14.1490    3.3110   12.6780 H   0  0  0  0  0  0  0  0  0  0  0  0
   14.6970    7.4250   11.4120 H   0  0  0  0  0  0  0  0  0  0  0  0
   11.3300    7.9340   10.1450 H   0  0  0  0  0  0  0  0  0  0  0  0
   11.9820   12.0880    9.5990 H   0  0  0  0  0  0  0  0  0  0  0  0
   14.9690    9.6660   11.5100 H   0  0  0  0  0  0  0  0  0  0  0  0
   14.8050   12.2210   12.9040 H   0  0  0  0  0  0  0  0  0  0  0  0
   15.9770   11.3460   11.9480 H   0  0  0  0  0  0  0  0  0  0  0  0
   16.9300   13.4200   12.8580 H   0  0  0  0  0  0  0  0  0  0  0  0
   17.0500   13.3180   11.1190 H   0  0  0  0  0  0  0  0  0  0  0  0
   14.3840   15.6660   10.5890 H   0  0  0  0  0  0  0  0  0  0  0  0
   15.5550   14.6550    9.7790 H   0  0  0  0  0  0  0  0  0  0  0  0
   13.4100   13.6050    9.5980 H   0  0  0  0  0  0  0  0  0  0  0  0
   13.0410   13.7690   11.3000 H   0  0  0  0  0  0  0  0  0  0  0  0
    9.1650    9.5780   10.7540 H   0  0  0  0  0  0  0  0  0  0  0  0
    9.1210   11.2640   10.2810 H   0  0  0  0  0  0  0  0  0  0  0  0
    7.7820    8.9190    8.7850 H   0  0  0  0  0  0  0  0  0  0  0  0
    6.9630   10.1560    9.7090 H   0  0  0  0  0  0  0  0  0  0  0  0
    8.9230    9.5980    6.6980 H   0  0  0  0  0  0  0  0  0  0  0  0
    8.8330   11.2840    6.2380 H   0  0  0  0  0  0  0  0  0  0  0  0
   10.2540   11.9720    8.1370 H   0  0  0  0  0  0  0  0  0  0  0  0
   11.0680   10.7260    7.2160 H   0  0  0  0  0  0  0  0  0  0  0  0
  1  2  1  0  0  0  0
  1  6  2  0  0  0  0
  1 37  1  0  0  0  0
  2  3  2  0  0  0  0
  2 38  1  0  0  0  0
  3  4  1  0  0  0  0
  3 36  1  0  0  0  0
  4  5  2  0  0  0  0
  4 10  1  0  0  0  0
  5  6  1  0  0  0  0
  5  9  1  0  0  0  0
  6  7  1  0  0  0  0
  7  8  1  0  0  0  0
  8  9  1  0  0  0  0
  8 39  1  0  0  0  0
  8 40  1  0  0  0  0
 10 11  1  0  0  0  0
 10 41  1  0  0  0  0
 11 12  1  0  0  0  0
 11 16  2  0  0  0  0
 12 13  2  0  0  0  0
 12 42  1  0  0  0  0
 13 14  1  0  0  0  0
 13 43  1  0  0  0  0
 14 15  2  0  0  0  0
 15 16  1  0  0  0  0
 15 17  1  0  0  0  0
 17 18  1  0  0  0  0
 17 44  1  0  0  0  0
 18 19  1  0  0  0  0
 18 23  2  0  0  0  0
 19 20  2  0  0  0  0
 19 45  1  0  0  0  0
 20 21  1  0  0  0  0
 20 30  1  0  0  0  0
 21 22  2  0  0  0  0
 21 46  1  0  0  0  0
 22 23  1  0  0  0  0
 22 24  1  0  0  0  0
 23 47  1  0  0  0  0
 24 25  1  0  0  0  0
 24 29  1  0  0  0  0
 25 26  1  0  0  0  0
 25 48  1  0  0  0  0
 25 49  1  0  0  0  0
 26 27  1  0  0  0  0
 26 50  1  0  0  0  0
 26 51  1  0  0  0  0
 27 28  1  0  0  0  0
 28 29  1  0  0  0  0
 28 52  1  0  0  0  0
 28 53  1  0  0  0  0
 29 54  1  0  0  0  0
 29 55  1  0  0  0  0
 30 31  1  0  0  0  0
 30 35  1  0  0  0  0
 31 32  1  0  0  0  0
 31 56  1  0  0  0  0
 31 57  1  0  0  0  0
 32 33  1  0  0  0  0
 32 58  1  0  0  0  0
 32 59  1  0  0  0  0
 33 34  1  0  0  0  0
 34 35  1  0  0  0  0
 34 60  1  0  0  0  0
 34 61  1  0  0  0  0
 35 62  1  0  0  0  0
 35 63  1  0  0  0  0
M  END
>  <paper_pIC50>
8.6989698

$$$$
CHEMBL497198
  MOE2020           3D

 56 60  0  0  0  0  0  0  0  0999 V2000
   15.3190   12.7440    9.1990 C   0  0  0  0  0  0  0  0  0  0  0  0
   14.2800   12.6330   10.7530 S   0  0  0  0  0  0  0  0  0  0  0  0
   15.1680   12.4220   11.9010 O   0  0  0  0  0  0  0  0  0  0  0  0
   13.3240   13.7440   10.7500 O   0  0  0  0  0  0  0  0  0  0  0  0
   13.3540   11.1260   10.5090 C   0  0  0  0  0  0  0  0  0  0  0  0
   13.8580    9.9100   10.9770 C   0  0  0  0  0  0  0  0  0  0  0  0
   13.0920    8.7470   10.8870 C   0  0  0  0  0  0  0  0  0  0  0  0
   11.8560    8.7920   10.2340 C   0  0  0  0  0  0  0  0  0  0  0  0
   11.3700    9.9860    9.7020 C   0  0  0  0  0  0  0  0  0  0  0  0
   12.1120   11.1600    9.8700 C   0  0  0  0  0  0  0  0  0  0  0  0
   10.1630    9.9680    9.0240 N   0  0  0  0  0  0  0  0  0  0  0  0
   10.0340   10.6800    7.7380 C   0  0  0  0  0  0  0  0  0  0  0  0
    8.7190   10.3320    7.0040 C   0  0  0  0  0  0  0  0  0  0  0  0
    7.6110   10.6440    7.8430 O   0  0  0  0  0  0  0  0  0  0  0  0
    7.6500    9.9050    9.0590 C   0  0  0  0  0  0  0  0  0  0  0  0
    8.9560   10.2320    9.8210 C   0  0  0  0  0  0  0  0  0  0  0  0
   13.6370    7.5690   11.4060 N   0  0  0  0  0  0  0  0  0  0  0  0
   13.0710    6.3520   11.7800 C   0  0  0  0  0  0  0  0  0  0  0  0
   13.9800    5.4100   12.1230 N   0  0  0  0  0  0  0  0  0  0  0  0
   13.4900    4.1950   12.4670 C   0  0  0  0  0  0  0  0  0  0  0  0
   12.1260    3.9340   12.5080 C   0  0  0  0  0  0  0  0  0  0  0  0
   11.2610    4.9660   12.1490 C   0  0  0  0  0  0  0  0  0  0  0  0
   11.7230    6.1860   11.7840 N   0  0  0  0  0  0  0  0  0  0  0  0
    9.8830    4.7600   12.0970 N   0  0  0  0  0  0  0  0  0  0  0  0
    9.2130    3.5750   12.4440 C   0  0  0  0  0  0  0  0  0  0  0  0
    8.6510    2.7240   11.4710 C   0  0  0  0  0  0  0  0  0  0  0  0
    8.0460    1.5100   11.8390 C   0  0  0  0  0  0  0  0  0  0  0  0
    8.0000    1.1030   13.1780 C   0  0  0  0  0  0  0  0  0  0  0  0
    8.5780    1.9460   14.1170 C   0  0  0  0  0  0  0  0  0  0  0  0
    9.1590    3.1350   13.7680 C   0  0  0  0  0  0  0  0  0  0  0  0
    9.6000    3.7550   14.8970 O   0  0  0  0  0  0  0  0  0  0  0  0
    9.5630    2.7610   15.8770 C   0  0  0  0  0  0  0  0  0  0  0  0
    8.6360    1.7960   15.4640 O   0  0  0  0  0  0  0  0  0  0  0  0
    8.6810    3.1290    9.7960 Cl  0  0  0  0  0  0  0  0  0  0  0  0
   15.9360   13.6390    9.2570 H   0  0  0  0  0  0  0  0  0  0  0  0
   15.9530   11.8630    9.1470 H   0  0  0  0  0  0  0  0  0  0  0  0
   14.6640   12.7890    8.3310 H   0  0  0  0  0  0  0  0  0  0  0  0
   14.8270    9.8760   11.4570 H   0  0  0  0  0  0  0  0  0  0  0  0
   11.2760    7.8960   10.0900 H   0  0  0  0  0  0  0  0  0  0  0  0
   11.7140   12.0960    9.5090 H   0  0  0  0  0  0  0  0  0  0  0  0
   10.0930   11.7590    7.8900 H   0  0  0  0  0  0  0  0  0  0  0  0
   10.8700   10.4080    7.0940 H   0  0  0  0  0  0  0  0  0  0  0  0
    8.7010    9.2800    6.7120 H   0  0  0  0  0  0  0  0  0  0  0  0
    8.6400   10.9110    6.0830 H   0  0  0  0  0  0  0  0  0  0  0  0
    7.5650    8.8360    8.8570 H   0  0  0  0  0  0  0  0  0  0  0  0
    6.7820   10.1730    9.6640 H   0  0  0  0  0  0  0  0  0  0  0  0
    8.9870    9.6410   10.7370 H   0  0  0  0  0  0  0  0  0  0  0  0
    8.9580   11.2810   10.1230 H   0  0  0  0  0  0  0  0  0  0  0  0
   14.6500    7.5360   11.3960 H   0  0  0  0  0  0  0  0  0  0  0  0
   14.2010    3.4200   12.6960 H   0  0  0  0  0  0  0  0  0  0  0  0
   11.7510    2.9700   12.8030 H   0  0  0  0  0  0  0  0  0  0  0  0
    9.3620    5.4310   11.5350 H   0  0  0  0  0  0  0  0  0  0  0  0
    7.6080    0.8900   11.0730 H   0  0  0  0  0  0  0  0  0  0  0  0
    7.5260    0.1770   13.4630 H   0  0  0  0  0  0  0  0  0  0  0  0
   10.5540    2.3190   15.9760 H   0  0  0  0  0  0  0  0  0  0  0  0
    9.3260    3.1700   16.8510 H   0  0  0  0  0  0  0  0  0  0  0  0
  1  2  1  0  0  0  0
  1 35  1  0  0  0  0
  1 36  1  0  0  0  0
  1 37  1  0  0  0  0
  2  3  2  0  0  0  0
  2  4  2  0  0  0  0
  2  5  1  0  0  0  0
  5  6  1  0  0  0  0
  5 10  2  0  0  0  0
  6  7  2  0  0  0  0
  6 38  1  0  0  0  0
  7  8  1  0  0  0  0
  7 17  1  0  0  0  0
  8  9  2  0  0  0  0
  8 39  1  0  0  0  0
  9 10  1  0  0  0  0
  9 11  1  0  0  0  0
 10 40  1  0  0  0  0
 11 12  1  0  0  0  0
 11 16  1  0  0  0  0
 12 13  1  0  0  0  0
 12 41  1  0  0  0  0
 12 42  1  0  0  0  0
 13 14  1  0  0  0  0
 13 43  1  0  0  0  0
 13 44  1  0  0  0  0
 14 15  1  0  0  0  0
 15 16  1  0  0  0  0
 15 45  1  0  0  0  0
 15 46  1  0  0  0  0
 16 47  1  0  0  0  0
 16 48  1  0  0  0  0
 17 18  1  0  0  0  0
 17 49  1  0  0  0  0
 18 19  1  0  0  0  0
 18 23  2  0  0  0  0
 19 20  2  0  0  0  0
 20 21  1  0  0  0  0
 20 50  1  0  0  0  0
 21 22  2  0  0  0  0
 21 51  1  0  0  0  0
 22 23  1  0  0  0  0
 22 24  1  0  0  0  0
 24 25  1  0  0  0  0
 24 52  1  0  0  0  0
 25 26  1  0  0  0  0
 25 30  2  0  0  0  0
 26 27  2  0  0  0  0
 26 34  1  0  0  0  0
 27 28  1  0  0  0  0
 27 53  1  0  0  0  0
 28 29  2  0  0  0  0
 28 54  1  0  0  0  0
 29 30  1  0  0  0  0
 29 33  1  0  0  0  0
 30 31  1  0  0  0  0
 31 32  1  0  0  0  0
 32 33  1  0  0  0  0
 32 55  1  0  0  0  0
 32 56  1  0  0  0  0
M  END
>  <paper_pIC50>
8.6989698

$$$$
CHEMBL496760
  MOE2020           3D

 50 53  0  0  0  0  0  0  0  0999 V2000
    9.2500    9.3220   11.2800 C   0  0  0  0  0  0  0  0  0  0  0  0
    9.3040    9.8540    9.4910 S   0  0  0  0  0  0  0  0  0  0  0  0
    9.6450    8.6990    8.6580 O   0  0  0  0  0  0  0  0  0  0  0  0
    8.1360   10.6910    9.2050 O   0  0  0  0  0  0  0  0  0  0  0  0
   10.6990   10.9140    9.5160 N   0  0  0  0  0  0  0  0  0  0  0  0
   11.9300   10.5580   10.0760 C   0  0  0  0  0  0  0  0  0  0  0  0
   12.2900    9.2370   10.3770 C   0  0  0  0  0  0  0  0  0  0  0  0
   13.4960    8.9590   11.0180 C   0  0  0  0  0  0  0  0  0  0  0  0
   14.3950   10.0040   11.2680 C   0  0  0  0  0  0  0  0  0  0  0  0
   14.0300   11.3300   11.0050 C   0  0  0  0  0  0  0  0  0  0  0  0
   12.7980   11.5950   10.4070 C   0  0  0  0  0  0  0  0  0  0  0  0
   15.0520   12.6940   11.5360 S   0  0  0  0  0  0  0  0  0  0  0  0
   14.2000   13.8850   11.6060 O   0  0  0  0  0  0  0  0  0  0  0  0
   15.8230   12.2500   12.7010 O   0  0  0  0  0  0  0  0  0  0  0  0
   16.1630   12.9320   10.2310 N   0  0  0  0  0  0  0  0  0  0  0  0
   13.8620    7.6690   11.4120 N   0  0  0  0  0  0  0  0  0  0  0  0
   13.1990    6.4860   11.7500 C   0  0  0  0  0  0  0  0  0  0  0  0
   14.0670    5.5170   12.1160 N   0  0  0  0  0  0  0  0  0  0  0  0
   13.5490    4.3150   12.4520 C   0  0  0  0  0  0  0  0  0  0  0  0
   12.1830    4.0880   12.4700 C   0  0  0  0  0  0  0  0  0  0  0  0
   11.3450    5.1410   12.0990 C   0  0  0  0  0  0  0  0  0  0  0  0
   11.8400    6.3590   11.7290 N   0  0  0  0  0  0  0  0  0  0  0  0
    9.9620    4.9330   12.0620 N   0  0  0  0  0  0  0  0  0  0  0  0
    9.2880    3.7390   12.3960 C   0  0  0  0  0  0  0  0  0  0  0  0
    8.7310    2.8990   11.4060 C   0  0  0  0  0  0  0  0  0  0  0  0
    8.1340    1.6720   11.7440 C   0  0  0  0  0  0  0  0  0  0  0  0
    8.0760    1.2410   13.0720 C   0  0  0  0  0  0  0  0  0  0  0  0
    8.6370    2.0710   14.0310 C   0  0  0  0  0  0  0  0  0  0  0  0
    9.2190    3.2710   13.7130 C   0  0  0  0  0  0  0  0  0  0  0  0
    9.6440    3.8620   14.8640 O   0  0  0  0  0  0  0  0  0  0  0  0
    9.5920    2.8450   15.8230 C   0  0  0  0  0  0  0  0  0  0  0  0
    8.6740    1.8900   15.3750 O   0  0  0  0  0  0  0  0  0  0  0  0
    8.7570    3.3280    9.7410 Cl  0  0  0  0  0  0  0  0  0  0  0  0
    9.8990    8.4600   11.4160 H   0  0  0  0  0  0  0  0  0  0  0  0
    9.6400   10.1310   11.8930 H   0  0  0  0  0  0  0  0  0  0  0  0
    8.2220    9.0860   11.5470 H   0  0  0  0  0  0  0  0  0  0  0  0
   10.4790   11.9000    9.4960 H   0  0  0  0  0  0  0  0  0  0  0  0
   11.6460    8.4130   10.1210 H   0  0  0  0  0  0  0  0  0  0  0  0
   15.3430    9.7940   11.7430 H   0  0  0  0  0  0  0  0  0  0  0  0
   12.5000   12.6170   10.2210 H   0  0  0  0  0  0  0  0  0  0  0  0
   15.7000   13.0880    9.3330 H   0  0  0  0  0  0  0  0  0  0  0  0
   16.8640   12.1730   10.1780 H   0  0  0  0  0  0  0  0  0  0  0  0
   14.8670    7.5330   11.3750 H   0  0  0  0  0  0  0  0  0  0  0  0
   14.2380    3.5260   12.7050 H   0  0  0  0  0  0  0  0  0  0  0  0
   11.7950    3.1250   12.7590 H   0  0  0  0  0  0  0  0  0  0  0  0
    9.4370    5.5800   11.4730 H   0  0  0  0  0  0  0  0  0  0  0  0
    7.7090    1.0590   10.9630 H   0  0  0  0  0  0  0  0  0  0  0  0
    7.6080    0.3050   13.3370 H   0  0  0  0  0  0  0  0  0  0  0  0
   10.5790    2.3920   15.9270 H   0  0  0  0  0  0  0  0  0  0  0  0
    9.3380    3.2210   16.8060 H   0  0  0  0  0  0  0  0  0  0  0  0
  1  2  1  0  0  0  0
  1 34  1  0  0  0  0
  1 35  1  0  0  0  0
  1 36  1  0  0  0  0
  2  3  2  0  0  0  0
  2  4  2  0  0  0  0
  2  5  1  0  0  0  0
  5  6  1  0  0  0  0
  5 37  1  0  0  0  0
  6  7  1  0  0  0  0
  6 11  2  0  0  0  0
  7  8  2  0  0  0  0
  7 38  1  0  0  0  0
  8  9  1  0  0  0  0
  8 16  1  0  0  0  0
  9 10  2  0  0  0  0
  9 39  1  0  0  0  0
 10 11  1  0  0  0  0
 10 12  1  0  0  0  0
 11 40  1  0  0  0  0
 12 13  2  0  0  0  0
 12 14  2  0  0  0  0
 12 15  1  0  0  0  0
 15 41  1  0  0  0  0
 15 42  1  0  0  0  0
 16 17  1  0  0  0  0
 16 43  1  0  0  0  0
 17 18  1  0  0  0  0
 17 22  2  0  0  0  0
 18 19  2  0  0  0  0
 19 20  1  0  0  0  0
 19 44  1  0  0  0  0
 20 21  2  0  0  0  0
 20 45  1  0  0  0  0
 21 22  1  0  0  0  0
 21 23  1  0  0  0  0
 23 24  1  0  0  0  0
 23 46  1  0  0  0  0
 24 25  1  0  0  0  0
 24 29  2  0  0  0  0
 25 26  2  0  0  0  0
 25 33  1  0  0  0  0
 26 27  1  0  0  0  0
 26 47  1  0  0  0  0
 27 28  2  0  0  0  0
 27 48  1  0  0  0  0
 28 29  1  0  0  0  0
 28 32  1  0  0  0  0
 29 30  1  0  0  0  0
 30 31  1  0  0  0  0
 31 32  1  0  0  0  0
 31 49  1  0  0  0  0
 31 50  1  0  0  0  0
M  END
>  <paper_pIC50>
9

$$$$
CHEMBL497195
  MOE2020           3D

 47 50  0  0  0  0  0  0  0  0999 V2000
   15.2120   12.6780    9.2780 C   0  0  0  0  0  0  0  0  0  0  0  0
   14.1560   12.6340   10.8250 S   0  0  0  0  0  0  0  0  0  0  0  0
   15.0300   12.4120   11.9830 O   0  0  0  0  0  0  0  0  0  0  0  0
   13.2410   13.7790   10.7950 O   0  0  0  0  0  0  0  0  0  0  0  0
   13.1880   11.1490   10.6030 C   0  0  0  0  0  0  0  0  0  0  0  0
   11.8710   11.2200   10.1400 C   0  0  0  0  0  0  0  0  0  0  0  0
   11.1120   10.0530    9.9740 C   0  0  0  0  0  0  0  0  0  0  0  0
   11.6820    8.8230   10.3430 C   0  0  0  0  0  0  0  0  0  0  0  0
   12.9820    8.7480   10.8580 C   0  0  0  0  0  0  0  0  0  0  0  0
   13.7470    9.9120   10.9310 C   0  0  0  0  0  0  0  0  0  0  0  0
   13.5740    7.5510   11.2810 N   0  0  0  0  0  0  0  0  0  0  0  0
   13.0360    6.3340   11.7020 C   0  0  0  0  0  0  0  0  0  0  0  0
   13.9600    5.4150   12.0670 N   0  0  0  0  0  0  0  0  0  0  0  0
   13.4890    4.2050   12.4560 C   0  0  0  0  0  0  0  0  0  0  0  0
   12.1280    3.9260   12.5150 C   0  0  0  0  0  0  0  0  0  0  0  0
   11.2490    4.9360   12.1310 C   0  0  0  0  0  0  0  0  0  0  0  0
   11.6920    6.1470   11.7280 N   0  0  0  0  0  0  0  0  0  0  0  0
    9.8730    4.7200   12.0880 N   0  0  0  0  0  0  0  0  0  0  0  0
    9.2090    3.5370   12.4490 C   0  0  0  0  0  0  0  0  0  0  0  0
    8.6410    2.6790   11.4840 C   0  0  0  0  0  0  0  0  0  0  0  0
    8.0340    1.4710   11.8660 C   0  0  0  0  0  0  0  0  0  0  0  0
    7.9910    1.0770   13.2080 C   0  0  0  0  0  0  0  0  0  0  0  0
    8.5750    1.9250   14.1380 C   0  0  0  0  0  0  0  0  0  0  0  0
    9.1590    3.1090   13.7760 C   0  0  0  0  0  0  0  0  0  0  0  0
    9.6040    3.7380   14.8980 O   0  0  0  0  0  0  0  0  0  0  0  0
    9.5660    2.7550   15.8880 C   0  0  0  0  0  0  0  0  0  0  0  0
    8.6350    1.7880   15.4860 O   0  0  0  0  0  0  0  0  0  0  0  0
    8.6680    3.0710    9.8050 Cl  0  0  0  0  0  0  0  0  0  0  0  0
    9.7040   10.1400    9.4400 C   0  0  0  0  0  0  0  0  0  0  0  0
    9.0120   11.1420    9.5710 O   0  0  0  0  0  0  0  0  0  0  0  0
    9.2210    9.0800    8.8110 N   0  0  0  0  0  0  0  0  0  0  0  0
   15.8220   11.7780    9.2530 H   0  0  0  0  0  0  0  0  0  0  0  0
   14.5630   12.7180    8.4060 H   0  0  0  0  0  0  0  0  0  0  0  0
   15.8520   13.5560    9.3190 H   0  0  0  0  0  0  0  0  0  0  0  0
   11.4340   12.1860    9.9100 H   0  0  0  0  0  0  0  0  0  0  0  0
   11.1070    7.9180   10.2320 H   0  0  0  0  0  0  0  0  0  0  0  0
   14.7630    9.8610   11.3000 H   0  0  0  0  0  0  0  0  0  0  0  0
   14.5870    7.5460   11.2710 H   0  0  0  0  0  0  0  0  0  0  0  0
   14.2130    3.4480   12.7050 H   0  0  0  0  0  0  0  0  0  0  0  0
   11.7660    2.9680   12.8420 H   0  0  0  0  0  0  0  0  0  0  0  0
    9.3440    5.3900   11.5330 H   0  0  0  0  0  0  0  0  0  0  0  0
    7.5900    0.8480   11.1060 H   0  0  0  0  0  0  0  0  0  0  0  0
    7.5120    0.1550   13.5030 H   0  0  0  0  0  0  0  0  0  0  0  0
   10.5560    2.3110   15.9890 H   0  0  0  0  0  0  0  0  0  0  0  0
    9.3320    3.1740   16.8570 H   0  0  0  0  0  0  0  0  0  0  0  0
    9.8130    8.3110    8.5400 H   0  0  0  0  0  0  0  0  0  0  0  0
    8.2860    9.1510    8.4460 H   0  0  0  0  0  0  0  0  0  0  0  0
  1  2  1  0  0  0  0
  1 32  1  0  0  0  0
  1 33  1  0  0  0  0
  1 34  1  0  0  0  0
  2  3  2  0  0  0  0
  2  4  2  0  0  0  0
  2  5  1  0  0  0  0
  5  6  1  0  0  0  0
  5 10  2  0  0  0  0
  6  7  2  0  0  0  0
  6 35  1  0  0  0  0
  7  8  1  0  0  0  0
  7 29  1  0  0  0  0
  8  9  2  0  0  0  0
  8 36  1  0  0  0  0
  9 10  1  0  0  0  0
  9 11  1  0  0  0  0
 10 37  1  0  0  0  0
 11 12  1  0  0  0  0
 11 38  1  0  0  0  0
 12 13  1  0  0  0  0
 12 17  2  0  0  0  0
 13 14  2  0  0  0  0
 14 15  1  0  0  0  0
 14 39  1  0  0  0  0
 15 16  2  0  0  0  0
 15 40  1  0  0  0  0
 16 17  1  0  0  0  0
 16 18  1  0  0  0  0
 18 19  1  0  0  0  0
 18 41  1  0  0  0  0
 19 20  1  0  0  0  0
 19 24  2  0  0  0  0
 20 21  2  0  0  0  0
 20 28  1  0  0  0  0
 21 22  1  0  0  0  0
 21 42  1  0  0  0  0
 22 23  2  0  0  0  0
 22 43  1  0  0  0  0
 23 24  1  0  0  0  0
 23 27  1  0  0  0  0
 24 25  1  0  0  0  0
 25 26  1  0  0  0  0
 26 27  1  0  0  0  0
 26 44  1  0  0  0  0
 26 45  1  0  0  0  0
 29 30  2  0  0  0  0
 29 31  1  0  0  0  0
 31 46  1  0  0  0  0
 31 47  1  0  0  0  0
M  END
>  <paper_pIC50>
7.6382723

$$$$
CHEMBL496968
  MOE2020           3D

 53 56  0  0  0  0  0  0  0  0999 V2000
    8.3460    8.8420    8.1480 C   0  0  0  0  0  0  0  0  0  0  0  0
    8.4340   10.0380    9.5720 S   0  0  0  0  0  0  0  0  0  0  0  0
    7.3660   11.0300    9.4190 O   0  0  0  0  0  0  0  0  0  0  0  0
    8.6290    9.3170   10.8330 O   0  0  0  0  0  0  0  0  0  0  0  0
    9.9300   10.8510    9.1880 N   0  0  0  0  0  0  0  0  0  0  0  0
   11.1420   10.5950    9.8360 C   0  0  0  0  0  0  0  0  0  0  0  0
   11.6280    9.3200   10.1580 C   0  0  0  0  0  0  0  0  0  0  0  0
   12.8920    9.1830   10.7490 C   0  0  0  0  0  0  0  0  0  0  0  0
   13.6760   10.3250   10.9540 C   0  0  0  0  0  0  0  0  0  0  0  0
   13.1490   11.6000   10.7290 C   0  0  0  0  0  0  0  0  0  0  0  0
   11.8950   11.7160   10.1520 C   0  0  0  0  0  0  0  0  0  0  0  0
   13.7550   12.8020   11.1170 N   0  0  0  0  0  0  0  0  0  0  0  0
   15.4780   13.0860   11.2590 S   0  0  0  0  0  0  0  0  0  0  0  0
   15.6240   14.4890   11.6570 O   0  0  0  0  0  0  0  0  0  0  0  0
   16.0500   12.0120   12.0740 O   0  0  0  0  0  0  0  0  0  0  0  0
   15.9870   12.9200    9.4690 C   0  0  0  0  0  0  0  0  0  0  0  0
   13.4540    7.9560   11.1380 N   0  0  0  0  0  0  0  0  0  0  0  0
   12.9540    6.7200   11.5600 C   0  0  0  0  0  0  0  0  0  0  0  0
   13.9250    5.8630   11.9660 N   0  0  0  0  0  0  0  0  0  0  0  0
   13.5290    4.6380   12.3910 C   0  0  0  0  0  0  0  0  0  0  0  0
   12.1900    4.2760   12.4430 C   0  0  0  0  0  0  0  0  0  0  0  0
   11.2530    5.2220   12.0280 C   0  0  0  0  0  0  0  0  0  0  0  0
   11.6200    6.4540   11.5780 N   0  0  0  0  0  0  0  0  0  0  0  0
    9.8920    4.9090   12.0280 N   0  0  0  0  0  0  0  0  0  0  0  0
    9.2850    3.6890   12.3810 C   0  0  0  0  0  0  0  0  0  0  0  0
    8.7320    2.8320   11.4040 C   0  0  0  0  0  0  0  0  0  0  0  0
    8.1500    1.6040   11.7590 C   0  0  0  0  0  0  0  0  0  0  0  0
    8.1040    1.1880   13.0930 C   0  0  0  0  0  0  0  0  0  0  0  0
    8.6650    2.0330   14.0390 C   0  0  0  0  0  0  0  0  0  0  0  0
    9.2360    3.2330   13.7030 C   0  0  0  0  0  0  0  0  0  0  0  0
    9.6510    3.8460   14.8470 O   0  0  0  0  0  0  0  0  0  0  0  0
    9.6050    2.8440   15.8220 C   0  0  0  0  0  0  0  0  0  0  0  0
    8.7000    1.8720   15.3850 O   0  0  0  0  0  0  0  0  0  0  0  0
    8.7310    3.2510    9.7350 Cl  0  0  0  0  0  0  0  0  0  0  0  0
    8.3020    9.4120    7.2220 H   0  0  0  0  0  0  0  0  0  0  0  0
    9.2410    8.2220    8.1570 H   0  0  0  0  0  0  0  0  0  0  0  0
    7.4470    8.2390    8.2610 H   0  0  0  0  0  0  0  0  0  0  0  0
    9.7860   11.8000    8.8820 H   0  0  0  0  0  0  0  0  0  0  0  0
   11.0390    8.4410    9.9470 H   0  0  0  0  0  0  0  0  0  0  0  0
   14.6510   10.2110   11.3990 H   0  0  0  0  0  0  0  0  0  0  0  0
   11.4840   12.6980    9.9710 H   0  0  0  0  0  0  0  0  0  0  0  0
   13.1980   13.6380   11.0320 H   0  0  0  0  0  0  0  0  0  0  0  0
   15.4260   13.6370    8.8740 H   0  0  0  0  0  0  0  0  0  0  0  0
   17.0560   13.1140    9.3960 H   0  0  0  0  0  0  0  0  0  0  0  0
   15.7690   11.9040    9.1470 H   0  0  0  0  0  0  0  0  0  0  0  0
   14.4660    7.9610   11.1710 H   0  0  0  0  0  0  0  0  0  0  0  0
   14.2930    3.9390   12.7030 H   0  0  0  0  0  0  0  0  0  0  0  0
   11.8930    3.3010   12.7970 H   0  0  0  0  0  0  0  0  0  0  0  0
    9.3190    5.5480   11.4720 H   0  0  0  0  0  0  0  0  0  0  0  0
    7.7210    0.9830   10.9880 H   0  0  0  0  0  0  0  0  0  0  0  0
    7.6400    0.2530   13.3710 H   0  0  0  0  0  0  0  0  0  0  0  0
   10.5950    2.4030   15.9380 H   0  0  0  0  0  0  0  0  0  0  0  0
    9.3390    3.2340   16.7970 H   0  0  0  0  0  0  0  0  0  0  0  0
  1  2  1  0  0  0  0
  1 35  1  0  0  0  0
  1 36  1  0  0  0  0
  1 37  1  0  0  0  0
  2  3  2  0  0  0  0
  2  4  2  0  0  0  0
  2  5  1  0  0  0  0
  5  6  1  0  0  0  0
  5 38  1  0  0  0  0
  6  7  1  0  0  0  0
  6 11  2  0  0  0  0
  7  8  2  0  0  0  0
  7 39  1  0  0  0  0
  8  9  1  0  0  0  0
  8 17  1  0  0  0  0
  9 10  2  0  0  0  0
  9 40  1  0  0  0  0
 10 11  1  0  0  0  0
 10 12  1  0  0  0  0
 11 41  1  0  0  0  0
 12 13  1  0  0  0  0
 12 42  1  0  0  0  0
 13 14  2  0  0  0  0
 13 15  2  0  0  0  0
 13 16  1  0  0  0  0
 16 43  1  0  0  0  0
 16 44  1  0  0  0  0
 16 45  1  0  0  0  0
 17 18  1  0  0  0  0
 17 46  1  0  0  0  0
 18 19  1  0  0  0  0
 18 23  2  0  0  0  0
 19 20  2  0  0  0  0
 20 21  1  0  0  0  0
 20 47  1  0  0  0  0
 21 22  2  0  0  0  0
 21 48  1  0  0  0  0
 22 23  1  0  0  0  0
 22 24  1  0  0  0  0
 24 25  1  0  0  0  0
 24 49  1  0  0  0  0
 25 26  1  0  0  0  0
 25 30  2  0  0  0  0
 26 27  2  0  0  0  0
 26 34  1  0  0  0  0
 27 28  1  0  0  0  0
 27 50  1  0  0  0  0
 28 29  2  0  0  0  0
 28 51  1  0  0  0  0
 29 30  1  0  0  0  0
 29 33  1  0  0  0  0
 30 31  1  0  0  0  0
 31 32  1  0  0  0  0
 32 33  1  0  0  0  0
 32 52  1  0  0  0  0
 32 53  1  0  0  0  0
M  END
>  <paper_pIC50>
7.8239088

$$$$
CHEMBL498404
  MOE2020           3D

 49 52  0  0  0  0  0  0  0  0999 V2000
   14.5940   13.1120    7.7810 C   0  0  0  0  0  0  0  0  0  0  0  0
   14.9130   13.5510    9.5730 S   0  0  0  0  0  0  0  0  0  0  0  0
   16.2450   14.1540    9.6710 O   0  0  0  0  0  0  0  0  0  0  0  0
   13.7400   14.2290   10.1330 O   0  0  0  0  0  0  0  0  0  0  0  0
   15.0390   11.9590   10.3180 N   0  0  0  0  0  0  0  0  0  0  0  0
   13.9840   11.0490   10.4820 C   0  0  0  0  0  0  0  0  0  0  0  0
   12.6600   11.3090   10.1090 C   0  0  0  0  0  0  0  0  0  0  0  0
   11.6670   10.3240   10.2270 C   0  0  0  0  0  0  0  0  0  0  0  0
   12.0300    9.0640   10.7290 C   0  0  0  0  0  0  0  0  0  0  0  0
   13.3400    8.7970   11.1240 C   0  0  0  0  0  0  0  0  0  0  0  0
   14.3020    9.8000   11.0060 C   0  0  0  0  0  0  0  0  0  0  0  0
   13.7690    7.5520   11.5930 N   0  0  0  0  0  0  0  0  0  0  0  0
   13.1420    6.3440   11.8960 C   0  0  0  0  0  0  0  0  0  0  0  0
   14.0190    5.3580   12.1940 N   0  0  0  0  0  0  0  0  0  0  0  0
   13.4960    4.1420   12.4740 C   0  0  0  0  0  0  0  0  0  0  0  0
   12.1270    3.9190   12.4970 C   0  0  0  0  0  0  0  0  0  0  0  0
   11.2910    4.9880   12.1780 C   0  0  0  0  0  0  0  0  0  0  0  0
   11.7890    6.2130   11.8730 N   0  0  0  0  0  0  0  0  0  0  0  0
    9.9080    4.8060   12.1150 N   0  0  0  0  0  0  0  0  0  0  0  0
    9.2240    3.6240   12.4460 C   0  0  0  0  0  0  0  0  0  0  0  0
    8.6650    2.7800   11.4620 C   0  0  0  0  0  0  0  0  0  0  0  0
    8.0620    1.5610   11.8150 C   0  0  0  0  0  0  0  0  0  0  0  0
    8.0110    1.1410   13.1490 C   0  0  0  0  0  0  0  0  0  0  0  0
    8.5820    1.9750   14.0990 C   0  0  0  0  0  0  0  0  0  0  0  0
    9.1620    3.1700   13.7660 C   0  0  0  0  0  0  0  0  0  0  0  0
    9.6000    3.7760   14.9030 O   0  0  0  0  0  0  0  0  0  0  0  0
    9.5630    2.7700   15.8710 C   0  0  0  0  0  0  0  0  0  0  0  0
    8.6370    1.8090   15.4450 O   0  0  0  0  0  0  0  0  0  0  0  0
    8.7030    3.1980    9.7910 Cl  0  0  0  0  0  0  0  0  0  0  0  0
   10.2540   10.6050    9.7770 C   0  0  0  0  0  0  0  0  0  0  0  0
    9.9900   11.4180    8.9000 O   0  0  0  0  0  0  0  0  0  0  0  0
    9.2920    9.9030   10.3570 N   0  0  0  0  0  0  0  0  0  0  0  0
   15.4350   12.5300    7.4110 H   0  0  0  0  0  0  0  0  0  0  0  0
   13.6800   12.5280    7.7120 H   0  0  0  0  0  0  0  0  0  0  0  0
   14.4960   14.0330    7.2090 H   0  0  0  0  0  0  0  0  0  0  0  0
   15.9850   11.6310   10.4800 H   0  0  0  0  0  0  0  0  0  0  0  0
   12.3870   12.2710    9.7040 H   0  0  0  0  0  0  0  0  0  0  0  0
   11.2930    8.2800   10.7750 H   0  0  0  0  0  0  0  0  0  0  0  0
   15.3190    9.6080   11.3060 H   0  0  0  0  0  0  0  0  0  0  0  0
   14.7760    7.4550   11.5500 H   0  0  0  0  0  0  0  0  0  0  0  0
   14.1830    3.3350   12.6660 H   0  0  0  0  0  0  0  0  0  0  0  0
   11.7260    2.9520   12.7440 H   0  0  0  0  0  0  0  0  0  0  0  0
    9.3990    5.4790   11.5440 H   0  0  0  0  0  0  0  0  0  0  0  0
    7.6300    0.9460   11.0410 H   0  0  0  0  0  0  0  0  0  0  0  0
    7.5400    0.2090   13.4230 H   0  0  0  0  0  0  0  0  0  0  0  0
   10.5540    2.3260   15.9650 H   0  0  0  0  0  0  0  0  0  0  0  0
    9.3260    3.1660   16.8500 H   0  0  0  0  0  0  0  0  0  0  0  0
    9.4920    9.4480   11.2300 H   0  0  0  0  0  0  0  0  0  0  0  0
    8.3530   10.0630   10.0360 H   0  0  0  0  0  0  0  0  0  0  0  0
  1  2  1  0  0  0  0
  1 33  1  0  0  0  0
  1 34  1  0  0  0  0
  1 35  1  0  0  0  0
  2  3  2  0  0  0  0
  2  4  2  0  0  0  0
  2  5  1  0  0  0  0
  5  6  1  0  0  0  0
  5 36  1  0  0  0  0
  6  7  1  0  0  0  0
  6 11  2  0  0  0  0
  7  8  2  0  0  0  0
  7 37  1  0  0  0  0
  8  9  1  0  0  0  0
  8 30  1  0  0  0  0
  9 10  2  0  0  0  0
  9 38  1  0  0  0  0
 10 11  1  0  0  0  0
 10 12  1  0  0  0  0
 11 39  1  0  0  0  0
 12 13  1  0  0  0  0
 12 40  1  0  0  0  0
 13 14  1  0  0  0  0
 13 18  2  0  0  0  0
 14 15  2  0  0  0  0
 15 16  1  0  0  0  0
 15 41  1  0  0  0  0
 16 17  2  0  0  0  0
 16 42  1  0  0  0  0
 17 18  1  0  0  0  0
 17 19  1  0  0  0  0
 19 20  1  0  0  0  0
 19 43  1  0  0  0  0
 20 21  1  0  0  0  0
 20 25  2  0  0  0  0
 21 22  2  0  0  0  0
 21 29  1  0  0  0  0
 22 23  1  0  0  0  0
 22 44  1  0  0  0  0
 23 24  2  0  0  0  0
 23 45  1  0  0  0  0
 24 25  1  0  0  0  0
 24 28  1  0  0  0  0
 25 26  1  0  0  0  0
 26 27  1  0  0  0  0
 27 28  1  0  0  0  0
 27 46  1  0  0  0  0
 27 47  1  0  0  0  0
 30 31  2  0  0  0  0
 30 32  1  0  0  0  0
 32 48  1  0  0  0  0
 32 49  1  0  0  0  0
M  END
>  <paper_pIC50>
6.4317985

$$$$
CHEMBL428067
  MOE2020           3D

 38 41  0  0  0  0  0  0  0  0999 V2000
   13.2920   12.0250   10.3280 C   0  0  0  0  0  0  0  0  0  0  0  0
   14.5050   11.4060   10.5890 C   0  0  0  0  0  0  0  0  0  0  0  0
   14.5260   10.0620   10.9450 C   0  0  0  0  0  0  0  0  0  0  0  0
   13.3600    9.2880   11.0380 C   0  0  0  0  0  0  0  0  0  0  0  0
   12.1260    9.9400   10.7950 C   0  0  0  0  0  0  0  0  0  0  0  0
   12.1120   11.2990   10.4370 C   0  0  0  0  0  0  0  0  0  0  0  0
   10.8070    9.3560   10.9370 C   0  0  0  0  0  0  0  0  0  0  0  0
    9.7360    8.9350   11.0440 N   0  0  0  0  0  0  0  0  0  0  0  0
   13.6370    7.9560   11.4080 N   0  0  0  0  0  0  0  0  0  0  0  0
   13.0470    6.7340   11.7550 C   0  0  0  0  0  0  0  0  0  0  0  0
   13.9870    5.8190   12.1040 N   0  0  0  0  0  0  0  0  0  0  0  0
   13.5550    4.5790   12.4370 C   0  0  0  0  0  0  0  0  0  0  0  0
   12.2070    4.2540   12.4540 C   0  0  0  0  0  0  0  0  0  0  0  0
   11.3000    5.2520   12.0970 C   0  0  0  0  0  0  0  0  0  0  0  0
   11.7080    6.5030   11.7350 N   0  0  0  0  0  0  0  0  0  0  0  0
    9.9330    4.9650   12.0670 N   0  0  0  0  0  0  0  0  0  0  0  0
    9.3030    3.7470   12.3960 C   0  0  0  0  0  0  0  0  0  0  0  0
    8.7550    2.9010   11.4050 C   0  0  0  0  0  0  0  0  0  0  0  0
    8.1730    1.6670   11.7400 C   0  0  0  0  0  0  0  0  0  0  0  0
    8.1180    1.2340   13.0680 C   0  0  0  0  0  0  0  0  0  0  0  0
    8.6710    2.0670   14.0280 C   0  0  0  0  0  0  0  0  0  0  0  0
    9.2440    3.2730   13.7120 C   0  0  0  0  0  0  0  0  0  0  0  0
    9.6540    3.8680   14.8660 O   0  0  0  0  0  0  0  0  0  0  0  0
    9.6060    2.8500   15.8260 C   0  0  0  0  0  0  0  0  0  0  0  0
    8.7010    1.8860   15.3720 O   0  0  0  0  0  0  0  0  0  0  0  0
    8.7640    3.3350    9.7410 Cl  0  0  0  0  0  0  0  0  0  0  0  0
   13.2620   13.0720   10.0590 H   0  0  0  0  0  0  0  0  0  0  0  0
   15.4310   11.9600   10.5220 H   0  0  0  0  0  0  0  0  0  0  0  0
   15.4920    9.6450   11.1680 H   0  0  0  0  0  0  0  0  0  0  0  0
   11.1800   11.8240   10.2610 H   0  0  0  0  0  0  0  0  0  0  0  0
   14.6380    7.8090   11.4080 H   0  0  0  0  0  0  0  0  0  0  0  0
   14.2960    3.8390   12.7060 H   0  0  0  0  0  0  0  0  0  0  0  0
   11.8810    3.2660   12.7390 H   0  0  0  0  0  0  0  0  0  0  0  0
    9.3740    5.6220   11.5160 H   0  0  0  0  0  0  0  0  0  0  0  0
    7.7520    1.0530   10.9580 H   0  0  0  0  0  0  0  0  0  0  0  0
    7.6570    0.2940   13.3310 H   0  0  0  0  0  0  0  0  0  0  0  0
   10.5960    2.4070   15.9360 H   0  0  0  0  0  0  0  0  0  0  0  0
    9.3400    3.2250   16.8060 H   0  0  0  0  0  0  0  0  0  0  0  0
  1  2  1  0  0  0  0
  1  6  2  0  0  0  0
  1 27  1  0  0  0  0
  2  3  2  0  0  0  0
  2 28  1  0  0  0  0
  3  4  1  0  0  0  0
  3 29  1  0  0  0  0
  4  5  2  0  0  0  0
  4  9  1  0  0  0  0
  5  6  1  0  0  0  0
  5  7  1  0  0  0  0
  6 30  1  0  0  0  0
  7  8  3  0  0  0  0
  9 10  1  0  0  0  0
  9 31  1  0  0  0  0
 10 11  1  0  0  0  0
 10 15  2  0  0  0  0
 11 12  2  0  0  0  0
 12 13  1  0  0  0  0
 12 32  1  0  0  0  0
 13 14  2  0  0  0  0
 13 33  1  0  0  0  0
 14 15  1  0  0  0  0
 14 16  1  0  0  0  0
 16 17  1  0  0  0  0
 16 34  1  0  0  0  0
 17 18  1  0  0  0  0
 17 22  2  0  0  0  0
 18 19  2  0  0  0  0
 18 26  1  0  0  0  0
 19 20  1  0  0  0  0
 19 35  1  0  0  0  0
 20 21  2  0  0  0  0
 20 36  1  0  0  0  0
 21 22  1  0  0  0  0
 21 25  1  0  0  0  0
 22 23  1  0  0  0  0
 23 24  1  0  0  0  0
 24 25  1  0  0  0  0
 24 37  1  0  0  0  0
 24 38  1  0  0  0  0
M  END
>  <paper_pIC50>
4.688458

$$$$
CHEMBL404178
  MOE2020           3D

 43 46  0  0  0  0  0  0  0  0999 V2000
   15.1210   12.1530    9.6880 C   0  0  0  0  0  0  0  0  0  0  0  0
   14.4620   11.1730   11.1490 S   0  0  0  0  0  0  0  0  0  0  0  0
   15.3200   10.0090   11.3660 O   0  0  0  0  0  0  0  0  0  0  0  0
   14.2600   12.1460   12.2260 O   0  0  0  0  0  0  0  0  0  0  0  0
   12.8400   10.5980   10.6010 C   0  0  0  0  0  0  0  0  0  0  0  0
   11.9860   11.6020   10.1310 C   0  0  0  0  0  0  0  0  0  0  0  0
   10.7400   11.2920    9.5980 C   0  0  0  0  0  0  0  0  0  0  0  0
   10.3350    9.9670    9.5190 C   0  0  0  0  0  0  0  0  0  0  0  0
   11.1580    8.9640   10.0220 C   0  0  0  0  0  0  0  0  0  0  0  0
   12.3940    9.2500   10.6210 C   0  0  0  0  0  0  0  0  0  0  0  0
   13.1560    8.2080   11.1950 N   0  0  0  0  0  0  0  0  0  0  0  0
   12.8270    6.9080   11.6240 C   0  0  0  0  0  0  0  0  0  0  0  0
   13.8730    6.1150   11.9790 N   0  0  0  0  0  0  0  0  0  0  0  0
   13.5750    4.8450   12.3710 C   0  0  0  0  0  0  0  0  0  0  0  0
   12.2670    4.3720   12.4400 C   0  0  0  0  0  0  0  0  0  0  0  0
   11.2540    5.2570   12.0830 C   0  0  0  0  0  0  0  0  0  0  0  0
   11.5250    6.5220   11.6820 N   0  0  0  0  0  0  0  0  0  0  0  0
    9.9130    4.8760   12.0670 N   0  0  0  0  0  0  0  0  0  0  0  0
    9.3360    3.6410   12.4110 C   0  0  0  0  0  0  0  0  0  0  0  0
    8.7750    2.7920   11.4330 C   0  0  0  0  0  0  0  0  0  0  0  0
    8.1850    1.5670   11.7880 C   0  0  0  0  0  0  0  0  0  0  0  0
    8.1350    1.1520   13.1220 C   0  0  0  0  0  0  0  0  0  0  0  0
    8.7010    1.9920   14.0680 C   0  0  0  0  0  0  0  0  0  0  0  0
    9.2850    3.1860   13.7320 C   0  0  0  0  0  0  0  0  0  0  0  0
    9.6850    3.8080   14.8760 O   0  0  0  0  0  0  0  0  0  0  0  0
    9.6200    2.8140   15.8580 C   0  0  0  0  0  0  0  0  0  0  0  0
    8.7170    1.8420   15.4160 O   0  0  0  0  0  0  0  0  0  0  0  0
    8.7520    3.2250    9.7660 Cl  0  0  0  0  0  0  0  0  0  0  0  0
   16.1140   12.5160    9.9480 H   0  0  0  0  0  0  0  0  0  0  0  0
   15.1830   11.5140    8.8180 H   0  0  0  0  0  0  0  0  0  0  0  0
   14.4680   12.9990    9.4930 H   0  0  0  0  0  0  0  0  0  0  0  0
   12.2840   12.6410   10.1730 H   0  0  0  0  0  0  0  0  0  0  0  0
   10.0960   12.0820    9.2380 H   0  0  0  0  0  0  0  0  0  0  0  0
    9.3840    9.7150    9.0730 H   0  0  0  0  0  0  0  0  0  0  0  0
   10.8150    7.9480    9.9180 H   0  0  0  0  0  0  0  0  0  0  0  0
   14.1380    8.4260   11.3160 H   0  0  0  0  0  0  0  0  0  0  0  0
   14.3900    4.1910   12.6430 H   0  0  0  0  0  0  0  0  0  0  0  0
   12.0440    3.3650   12.7590 H   0  0  0  0  0  0  0  0  0  0  0  0
    9.3180    5.5030   11.5250 H   0  0  0  0  0  0  0  0  0  0  0  0
    7.7460    0.9520   11.0170 H   0  0  0  0  0  0  0  0  0  0  0  0
    7.6580    0.2240   13.4000 H   0  0  0  0  0  0  0  0  0  0  0  0
   10.6070    2.3710   15.9910 H   0  0  0  0  0  0  0  0  0  0  0  0
    9.3420    3.2160   16.8240 H   0  0  0  0  0  0  0  0  0  0  0  0
  1  2  1  0  0  0  0
  1 29  1  0  0  0  0
  1 30  1  0  0  0  0
  1 31  1  0  0  0  0
  2  3  2  0  0  0  0
  2  4  2  0  0  0  0
  2  5  1  0  0  0  0
  5  6  1  0  0  0  0
  5 10  2  0  0  0  0
  6  7  2  0  0  0  0
  6 32  1  0  0  0  0
  7  8  1  0  0  0  0
  7 33  1  0  0  0  0
  8  9  2  0  0  0  0
  8 34  1  0  0  0  0
  9 10  1  0  0  0  0
  9 35  1  0  0  0  0
 10 11  1  0  0  0  0
 11 12  1  0  0  0  0
 11 36  1  0  0  0  0
 12 13  1  0  0  0  0
 12 17  2  0  0  0  0
 13 14  2  0  0  0  0
 14 15  1  0  0  0  0
 14 37  1  0  0  0  0
 15 16  2  0  0  0  0
 15 38  1  0  0  0  0
 16 17  1  0  0  0  0
 16 18  1  0  0  0  0
 18 19  1  0  0  0  0
 18 39  1  0  0  0  0
 19 20  1  0  0  0  0
 19 24  2  0  0  0  0
 20 21  2  0  0  0  0
 20 28  1  0  0  0  0
 21 22  1  0  0  0  0
 21 40  1  0  0  0  0
 22 23  2  0  0  0  0
 22 41  1  0  0  0  0
 23 24  1  0  0  0  0
 23 27  1  0  0  0  0
 24 25  1  0  0  0  0
 25 26  1  0  0  0  0
 26 27  1  0  0  0  0
 26 42  1  0  0  0  0
 26 43  1  0  0  0  0
M  END
>  <paper_pIC50>
4.3872161

$$$$
CHEMBL403614
  MOE2020           3D

 42 45  0  0  0  0  0  0  0  0999 V2000
   10.5180    9.7290    9.2170 C   0  0  0  0  0  0  0  0  0  0  0  0
   10.9570   11.0460    9.2000 C   0  0  0  0  0  0  0  0  0  0  0  0
   12.1540   11.3830    9.8230 C   0  0  0  0  0  0  0  0  0  0  0  0
   12.9200   10.4140   10.4840 C   0  0  0  0  0  0  0  0  0  0  0  0
   12.4510    9.0800   10.5630 C   0  0  0  0  0  0  0  0  0  0  0  0
   11.2620    8.7620    9.8870 C   0  0  0  0  0  0  0  0  0  0  0  0
   13.1720    8.0740   11.2380 N   0  0  0  0  0  0  0  0  0  0  0  0
   12.8310    6.7840   11.6710 C   0  0  0  0  0  0  0  0  0  0  0  0
   13.8660    5.9820   12.0380 N   0  0  0  0  0  0  0  0  0  0  0  0
   13.5490    4.7140   12.4200 C   0  0  0  0  0  0  0  0  0  0  0  0
   12.2350    4.2560   12.4700 C   0  0  0  0  0  0  0  0  0  0  0  0
   11.2360    5.1560   12.1030 C   0  0  0  0  0  0  0  0  0  0  0  0
   11.5250    6.4160   11.7110 N   0  0  0  0  0  0  0  0  0  0  0  0
    9.8920    4.7960   12.0670 N   0  0  0  0  0  0  0  0  0  0  0  0
    9.2990    3.5740   12.4230 C   0  0  0  0  0  0  0  0  0  0  0  0
    8.7300    2.7190   11.4560 C   0  0  0  0  0  0  0  0  0  0  0  0
    8.1300    1.5050   11.8280 C   0  0  0  0  0  0  0  0  0  0  0  0
    8.0830    1.1050   13.1670 C   0  0  0  0  0  0  0  0  0  0  0  0
    8.6620    1.9500   14.1020 C   0  0  0  0  0  0  0  0  0  0  0  0
    9.2520    3.1360   13.7490 C   0  0  0  0  0  0  0  0  0  0  0  0
    9.6660    3.7680   14.8810 O   0  0  0  0  0  0  0  0  0  0  0  0
    9.6050    2.7860   15.8740 C   0  0  0  0  0  0  0  0  0  0  0  0
    8.6920    1.8150   15.4510 O   0  0  0  0  0  0  0  0  0  0  0  0
    8.7190    3.1320    9.7820 Cl  0  0  0  0  0  0  0  0  0  0  0  0
   14.4700   11.0200   11.1640 S   0  0  0  0  0  0  0  0  0  0  0  0
   14.1720   12.1910   11.9920 O   0  0  0  0  0  0  0  0  0  0  0  0
   15.2380    9.8980   11.7030 O   0  0  0  0  0  0  0  0  0  0  0  0
   15.3390   11.6260    9.7980 N   0  0  0  0  0  0  0  0  0  0  0  0
    9.6070    9.4520    8.7060 H   0  0  0  0  0  0  0  0  0  0  0  0
   10.3820   11.8060    8.6900 H   0  0  0  0  0  0  0  0  0  0  0  0
   12.4980   12.4070    9.7810 H   0  0  0  0  0  0  0  0  0  0  0  0
   10.9060    7.7480    9.8360 H   0  0  0  0  0  0  0  0  0  0  0  0
   14.1500    8.3000   11.3730 H   0  0  0  0  0  0  0  0  0  0  0  0
   14.3570    4.0530   12.7000 H   0  0  0  0  0  0  0  0  0  0  0  0
   11.9950    3.2520   12.7840 H   0  0  0  0  0  0  0  0  0  0  0  0
    9.3090    5.4360   11.5280 H   0  0  0  0  0  0  0  0  0  0  0  0
    7.6820    0.8870   11.0660 H   0  0  0  0  0  0  0  0  0  0  0  0
    7.5990    0.1840   13.4580 H   0  0  0  0  0  0  0  0  0  0  0  0
   10.5920    2.3420   16.0020 H   0  0  0  0  0  0  0  0  0  0  0  0
    9.3400    3.2040   16.8360 H   0  0  0  0  0  0  0  0  0  0  0  0
   15.2520   12.6390    9.7080 H   0  0  0  0  0  0  0  0  0  0  0  0
   16.3330   11.3510    9.8620 H   0  0  0  0  0  0  0  0  0  0  0  0
  1  2  1  0  0  0  0
  1  6  2  0  0  0  0
  1 29  1  0  0  0  0
  2  3  2  0  0  0  0
  2 30  1  0  0  0  0
  3  4  1  0  0  0  0
  3 31  1  0  0  0  0
  4  5  2  0  0  0  0
  4 25  1  0  0  0  0
  5  6  1  0  0  0  0
  5  7  1  0  0  0  0
  6 32  1  0  0  0  0
  7  8  1  0  0  0  0
  7 33  1  0  0  0  0
  8  9  1  0  0  0  0
  8 13  2  0  0  0  0
  9 10  2  0  0  0  0
 10 11  1  0  0  0  0
 10 34  1  0  0  0  0
 11 12  2  0  0  0  0
 11 35  1  0  0  0  0
 12 13  1  0  0  0  0
 12 14  1  0  0  0  0
 14 15  1  0  0  0  0
 14 36  1  0  0  0  0
 15 16  1  0  0  0  0
 15 20  2  0  0  0  0
 16 17  2  0  0  0  0
 16 24  1  0  0  0  0
 17 18  1  0  0  0  0
 17 37  1  0  0  0  0
 18 19  2  0  0  0  0
 18 38  1  0  0  0  0
 19 20  1  0  0  0  0
 19 23  1  0  0  0  0
 20 21  1  0  0  0  0
 21 22  1  0  0  0  0
 22 23  1  0  0  0  0
 22 39  1  0  0  0  0
 22 40  1  0  0  0  0
 25 26  2  0  0  0  0
 25 27  2  0  0  0  0
 25 28  1  0  0  0  0
 28 41  1  0  0  0  0
 28 42  1  0  0  0  0
M  END
>  <paper_pIC50>
4.4497719

$$$$
